/*---------------------------------------------------------------------------*\
  =========                 |
  \\      /  F ield         | OpenFOAM: The Open Source CFD Toolbox
   \\    /   O peration     | Website:  https://openfoam.org
    \\  /    A nd           | Version:  7
     \\/     M anipulation  |
\*---------------------------------------------------------------------------*/
Build  : 7-3bcbaf946ae9
Exec   : polymSimpleFoam -parallel
Date   : Jun 03 2022
Time   : 00:35:50
Host   : "anuar"
PID    : 12790
I/O    : uncollated
Case   : /home/anuar/OpenFOAM/anuar-7/run/cases/pelletExtruder/simplifMRF
nProcs : 4
Slaves : 
3
(
"anuar.12791"
"anuar.12792"
"anuar.12793"
)

Pstream initialized with:
    floatTransfer      : 0
    nProcsSimpleSum    : 0
    commsType          : nonBlocking
    polling iterations : 0
sigFpe : Enabling floating point exception trapping (FOAM_SIGFPE).
fileModificationChecking : Monitoring run-time modified files using timeStampMaster (fileModificationSkew 10)
allowSystemOperations : Allowing user-supplied system call operations

// * * * * * * * * * * * * * * * * * * * * * * * * * * * * * * * * * * * * * //
Create time

Create mesh for time = 0


SIMPLE: Convergence criteria found
        p: tolerance 1e-06
        U: tolerance 1e-05
        h: tolerance 1e-07

Reading thermophysical properties

Selecting thermodynamics package 
{
    type            heRhoThermo;
    mixture         pureMixture;
    transport       polymerKWLF;
    thermo          hPolymer;
    equationOfState rhoPolymerEOS;
    specie          specie;
    energy          sensibleEnthalpy;
}

Reading field U

Reading/calculating face flux field phi

pressureControl
    pMax 2e+07
    pMin 99000

Creating turbulence model

Selecting turbulence model type laminar
Selecting laminar stress model generalizedNewtonian
Selecting generalized Newtonian model CrossPowerLaw
Creating MRF zone list from MRFProperties
    creating MRF zone: MRF1
Creating finite volume options from "constant/fvOptions"

Selecting finite volume options model type limitTemperature
    Source: limitT
    - selecting all cells
    - selected 23667 cell(s) with volume 1.50273e-05
Courant Number mean: 240.754 max: 7973.17

Starting time loop



Time = 1

Courant Number mean: 240.754 max: 7973.17
smoothSolver:  Solving for Ux, Initial residual = 1, Final residual = 0.00792844, No Iterations 12
smoothSolver:  Solving for Uy, Initial residual = 1, Final residual = 0.00806373, No Iterations 12
smoothSolver:  Solving for Uz, Initial residual = 1, Final residual = 0.00761591, No Iterations 9
smoothSolver:  Solving for h, Initial residual = 1, Final residual = 0.00643406, No Iterations 6
GAMG:  Solving for p, Initial residual = 1, Final residual = 0.0035911, No Iterations 5
GAMG:  Solving for p, Initial residual = 0.036628, Final residual = 0.000237884, No Iterations 2
GAMG:  Solving for p, Initial residual = 0.00602208, Final residual = 3.58066e-05, No Iterations 2
time step continuity errors : sum local = 1.2345, global = -0.811469, cumulative = -0.811469
pressureControl: p max 4.55844e+09
pressureControl: p min -1.10776e+08
ExecutionTime = 0.11 s  ClockTime = 1 s

Time = 2

Courant Number mean: 18903.2 max: 2.01319e+07
smoothSolver:  Solving for Ux, Initial residual = 0.651798, Final residual = 0.00581782, No Iterations 9
smoothSolver:  Solving for Uy, Initial residual = 0.651494, Final residual = 0.00580523, No Iterations 9
smoothSolver:  Solving for Uz, Initial residual = 0.804908, Final residual = 0.00743526, No Iterations 23
smoothSolver:  Solving for h, Initial residual = 0.241337, Final residual = 0.0018941, No Iterations 18
GAMG:  Solving for p, Initial residual = 0.966366, Final residual = 0.00415385, No Iterations 4
GAMG:  Solving for p, Initial residual = 0.0192541, Final residual = 9.89452e-05, No Iterations 3
GAMG:  Solving for p, Initial residual = 0.00248937, Final residual = 1.19435e-05, No Iterations 3
time step continuity errors : sum local = 1.27469, global = 0.884895, cumulative = 0.0734258
pressureControl: p min -6.29438e+06
ExecutionTime = 0.17 s  ClockTime = 1 s

Time = 3

Courant Number mean: 34693.3 max: 1.87955e+07
smoothSolver:  Solving for Ux, Initial residual = 0.460771, Final residual = 0.0042978, No Iterations 15
smoothSolver:  Solving for Uy, Initial residual = 0.459781, Final residual = 0.00410843, No Iterations 15
smoothSolver:  Solving for Uz, Initial residual = 0.587035, Final residual = 0.00522233, No Iterations 18
smoothSolver:  Solving for h, Initial residual = 0.140313, Final residual = 0.00127358, No Iterations 16
GAMG:  Solving for p, Initial residual = 0.172478, Final residual = 0.00166834, No Iterations 2
GAMG:  Solving for p, Initial residual = 0.00556484, Final residual = 3.01876e-05, No Iterations 3
GAMG:  Solving for p, Initial residual = 0.000562563, Final residual = 1.80345e-06, No Iterations 3
time step continuity errors : sum local = 1.64898, global = 1.21452, cumulative = 1.28795
pressureControl: p min -3.47335e+06
ExecutionTime = 0.23 s  ClockTime = 1 s

Time = 4

Courant Number mean: 50337.9 max: 1.79068e+07
smoothSolver:  Solving for Ux, Initial residual = 0.270111, Final residual = 0.00225003, No Iterations 14
smoothSolver:  Solving for Uy, Initial residual = 0.269842, Final residual = 0.00219864, No Iterations 14
smoothSolver:  Solving for Uz, Initial residual = 0.308731, Final residual = 0.00296928, No Iterations 14
smoothSolver:  Solving for h, Initial residual = 0.105335, Final residual = 0.000765851, No Iterations 14
GAMG:  Solving for p, Initial residual = 0.104781, Final residual = 0.000994091, No Iterations 1
GAMG:  Solving for p, Initial residual = 0.00287259, Final residual = 5.91537e-06, No Iterations 3
GAMG:  Solving for p, Initial residual = 0.00019758, Final residual = 9.23844e-07, No Iterations 2
time step continuity errors : sum local = 2.89783, global = -2.16809, cumulative = -0.880147
pressureControl: p min -1.70552e+06
ExecutionTime = 0.29 s  ClockTime = 1 s

Time = 5

Courant Number mean: 70396.3 max: 1.75668e+07
smoothSolver:  Solving for Ux, Initial residual = 0.205285, Final residual = 0.00196627, No Iterations 13
smoothSolver:  Solving for Uy, Initial residual = 0.199843, Final residual = 0.00193361, No Iterations 13
smoothSolver:  Solving for Uz, Initial residual = 0.24208, Final residual = 0.00217571, No Iterations 14
smoothSolver:  Solving for h, Initial residual = 0.0888001, Final residual = 0.000524308, No Iterations 12
GAMG:  Solving for p, Initial residual = 0.0793001, Final residual = 0.000296337, No Iterations 2
GAMG:  Solving for p, Initial residual = 0.00176049, Final residual = 1.02055e-05, No Iterations 2
GAMG:  Solving for p, Initial residual = 8.16986e-05, Final residual = 7.16312e-07, No Iterations 2
time step continuity errors : sum local = 5.59193, global = -2.11771, cumulative = -2.99785
pressureControl: p min -1.46219e+06
ExecutionTime = 0.35 s  ClockTime = 1 s

Time = 6

Courant Number mean: 113162 max: 1.79122e+07
smoothSolver:  Solving for Ux, Initial residual = 0.166954, Final residual = 0.00148869, No Iterations 14
smoothSolver:  Solving for Uy, Initial residual = 0.153843, Final residual = 0.00135058, No Iterations 14
smoothSolver:  Solving for Uz, Initial residual = 0.271702, Final residual = 0.00214526, No Iterations 14
smoothSolver:  Solving for h, Initial residual = 0.0346445, Final residual = 0.00026519, No Iterations 10
GAMG:  Solving for p, Initial residual = 0.0724471, Final residual = 0.00020749, No Iterations 2
GAMG:  Solving for p, Initial residual = 0.00126835, Final residual = 5.5565e-06, No Iterations 2
GAMG:  Solving for p, Initial residual = 5.50313e-05, Final residual = 3.22978e-07, No Iterations 2
time step continuity errors : sum local = 3.88063, global = -0.698673, cumulative = -3.69653
pressureControl: p min -2.44688e+06
ExecutionTime = 0.39 s  ClockTime = 1 s

Time = 7

Courant Number mean: 144399 max: 1.83706e+07
smoothSolver:  Solving for Ux, Initial residual = 0.14532, Final residual = 0.0012818, No Iterations 15
smoothSolver:  Solving for Uy, Initial residual = 0.121529, Final residual = 0.00104611, No Iterations 15
smoothSolver:  Solving for Uz, Initial residual = 0.17454, Final residual = 0.00142284, No Iterations 14
smoothSolver:  Solving for h, Initial residual = 0.028486, Final residual = 0.000227821, No Iterations 8
GAMG:  Solving for p, Initial residual = 0.0727054, Final residual = 0.000145238, No Iterations 2
GAMG:  Solving for p, Initial residual = 0.00106872, Final residual = 3.99153e-06, No Iterations 2
GAMG:  Solving for p, Initial residual = 4.56602e-05, Final residual = 2.11125e-07, No Iterations 2
time step continuity errors : sum local = 2.68031, global = -0.180035, cumulative = -3.87656
pressureControl: p min -2.77444e+06
ExecutionTime = 0.44 s  ClockTime = 1 s

Time = 8

Courant Number mean: 169195 max: 1.88737e+07
smoothSolver:  Solving for Ux, Initial residual = 0.1215, Final residual = 0.00101474, No Iterations 16
smoothSolver:  Solving for Uy, Initial residual = 0.106383, Final residual = 0.00104107, No Iterations 15
smoothSolver:  Solving for Uz, Initial residual = 0.0799248, Final residual = 0.000673421, No Iterations 14
smoothSolver:  Solving for h, Initial residual = 0.0304248, Final residual = 0.000176931, No Iterations 8
GAMG:  Solving for p, Initial residual = 0.0737942, Final residual = 0.000116474, No Iterations 2
GAMG:  Solving for p, Initial residual = 0.00106304, Final residual = 3.51307e-06, No Iterations 2
GAMG:  Solving for p, Initial residual = 4.45382e-05, Final residual = 1.61235e-07, No Iterations 2
time step continuity errors : sum local = 1.81898, global = 0.165752, cumulative = -3.71081
pressureControl: p min -2.98106e+06
ExecutionTime = 0.48 s  ClockTime = 1 s

Time = 9

Courant Number mean: 178411 max: 1.93382e+07
smoothSolver:  Solving for Ux, Initial residual = 0.103731, Final residual = 0.000887754, No Iterations 16
smoothSolver:  Solving for Uy, Initial residual = 0.0957459, Final residual = 0.000782555, No Iterations 16
smoothSolver:  Solving for Uz, Initial residual = 0.0541322, Final residual = 0.00045938, No Iterations 14
smoothSolver:  Solving for h, Initial residual = 0.029806, Final residual = 0.000276125, No Iterations 6
GAMG:  Solving for p, Initial residual = 0.0745026, Final residual = 8.61619e-05, No Iterations 2
GAMG:  Solving for p, Initial residual = 0.00105857, Final residual = 2.86131e-06, No Iterations 2
GAMG:  Solving for p, Initial residual = 4.02806e-05, Final residual = 1.22212e-07, No Iterations 2
time step continuity errors : sum local = 1.17715, global = -0.357059, cumulative = -4.06787
pressureControl: p min -3.05853e+06
ExecutionTime = 0.53 s  ClockTime = 1 s

Time = 10

Courant Number mean: 170296 max: 1.97851e+07
smoothSolver:  Solving for Ux, Initial residual = 0.0925833, Final residual = 0.000924532, No Iterations 15
smoothSolver:  Solving for Uy, Initial residual = 0.0770596, Final residual = 0.000751919, No Iterations 15
smoothSolver:  Solving for Uz, Initial residual = 0.0470872, Final residual = 0.000385663, No Iterations 14
smoothSolver:  Solving for h, Initial residual = 0.0251835, Final residual = 0.000216478, No Iterations 6
GAMG:  Solving for p, Initial residual = 0.075384, Final residual = 6.38702e-05, No Iterations 2
GAMG:  Solving for p, Initial residual = 0.00103784, Final residual = 1.90345e-06, No Iterations 2
GAMG:  Solving for p, Initial residual = 3.55604e-05, Final residual = 9.91078e-08, No Iterations 2
time step continuity errors : sum local = 0.769233, global = 0.502038, cumulative = -3.56583
pressureControl: p min -3.25007e+06
ExecutionTime = 0.58 s  ClockTime = 1 s

Time = 11

Courant Number mean: 148905 max: 2.02068e+07
smoothSolver:  Solving for Ux, Initial residual = 0.0793297, Final residual = 0.000766889, No Iterations 15
smoothSolver:  Solving for Uy, Initial residual = 0.0538512, Final residual = 0.000509516, No Iterations 15
smoothSolver:  Solving for Uz, Initial residual = 0.0488981, Final residual = 0.000389745, No Iterations 14
smoothSolver:  Solving for h, Initial residual = 0.0200355, Final residual = 0.000187312, No Iterations 6
GAMG:  Solving for p, Initial residual = 0.0771526, Final residual = 0.000671116, No Iterations 1
GAMG:  Solving for p, Initial residual = 0.00144147, Final residual = 5.19411e-06, No Iterations 2
GAMG:  Solving for p, Initial residual = 7.57482e-05, Final residual = 2.15063e-07, No Iterations 2
time step continuity errors : sum local = 1.24636, global = 0.913685, cumulative = -2.65215
pressureControl: p min -3.89683e+06
ExecutionTime = 0.62 s  ClockTime = 1 s

Time = 12

Courant Number mean: 122185 max: 2.05601e+07
smoothSolver:  Solving for Ux, Initial residual = 0.0737234, Final residual = 0.000691714, No Iterations 15
smoothSolver:  Solving for Uy, Initial residual = 0.0431808, Final residual = 0.000394795, No Iterations 15
smoothSolver:  Solving for Uz, Initial residual = 0.0549158, Final residual = 0.00054843, No Iterations 13
smoothSolver:  Solving for h, Initial residual = 0.0158297, Final residual = 8.46364e-05, No Iterations 8
GAMG:  Solving for p, Initial residual = 0.0792109, Final residual = 0.000638735, No Iterations 1
GAMG:  Solving for p, Initial residual = 0.00143583, Final residual = 3.28192e-06, No Iterations 2
GAMG:  Solving for p, Initial residual = 7.31985e-05, Final residual = 2.67063e-07, No Iterations 2
time step continuity errors : sum local = 1.10266, global = 0.866865, cumulative = -1.78528
pressureControl: p min -4.08054e+06
ExecutionTime = 0.66 s  ClockTime = 1 s

Time = 13

Courant Number mean: 96137.2 max: 2.07171e+07
smoothSolver:  Solving for Ux, Initial residual = 0.0693189, Final residual = 0.00064037, No Iterations 15
smoothSolver:  Solving for Uy, Initial residual = 0.0398543, Final residual = 0.000360642, No Iterations 15
smoothSolver:  Solving for Uz, Initial residual = 0.0637272, Final residual = 0.000613809, No Iterations 13
smoothSolver:  Solving for h, Initial residual = 0.0140846, Final residual = 9.27519e-05, No Iterations 8
GAMG:  Solving for p, Initial residual = 0.081148, Final residual = 0.000633448, No Iterations 1
GAMG:  Solving for p, Initial residual = 0.00145201, Final residual = 3.72003e-06, No Iterations 2
GAMG:  Solving for p, Initial residual = 7.46165e-05, Final residual = 3.66407e-07, No Iterations 2
time step continuity errors : sum local = 1.02703, global = 0.80149, cumulative = -0.983791
pressureControl: p min -4.65059e+06
ExecutionTime = 0.71 s  ClockTime = 1 s

Time = 14

Courant Number mean: 73367.7 max: 2.06867e+07
smoothSolver:  Solving for Ux, Initial residual = 0.0700515, Final residual = 0.000653331, No Iterations 15
smoothSolver:  Solving for Uy, Initial residual = 0.041835, Final residual = 0.00037643, No Iterations 15
smoothSolver:  Solving for Uz, Initial residual = 0.0739059, Final residual = 0.000685985, No Iterations 13
smoothSolver:  Solving for h, Initial residual = 0.0133717, Final residual = 0.000116894, No Iterations 8
GAMG:  Solving for p, Initial residual = 0.0830721, Final residual = 0.000621312, No Iterations 1
GAMG:  Solving for p, Initial residual = 0.00147184, Final residual = 4.44725e-06, No Iterations 2
GAMG:  Solving for p, Initial residual = 7.79465e-05, Final residual = 5.67252e-07, No Iterations 2
time step continuity errors : sum local = 1.02956, global = 0.794495, cumulative = -0.189297
pressureControl: p min -5.10289e+06
ExecutionTime = 0.75 s  ClockTime = 1 s

Time = 15

Courant Number mean: 54611.5 max: 2.05332e+07
smoothSolver:  Solving for Ux, Initial residual = 0.0757492, Final residual = 0.000697042, No Iterations 15
smoothSolver:  Solving for Uy, Initial residual = 0.0497667, Final residual = 0.000438223, No Iterations 15
smoothSolver:  Solving for Uz, Initial residual = 0.084796, Final residual = 0.000756693, No Iterations 13
smoothSolver:  Solving for h, Initial residual = 0.0137653, Final residual = 7.73422e-05, No Iterations 10
GAMG:  Solving for p, Initial residual = 0.0852352, Final residual = 0.000608356, No Iterations 1
GAMG:  Solving for p, Initial residual = 0.00150361, Final residual = 5.76069e-06, No Iterations 2
GAMG:  Solving for p, Initial residual = 8.66252e-05, Final residual = 3.46234e-07, No Iterations 3
time step continuity errors : sum local = 0.381761, global = 0.285316, cumulative = 0.0960191
pressureControl: p min -5.30275e+06
ExecutionTime = 0.8 s  ClockTime = 1 s

Time = 16

Courant Number mean: 40441.4 max: 2.03402e+07
smoothSolver:  Solving for Ux, Initial residual = 0.0799375, Final residual = 0.000697642, No Iterations 15
smoothSolver:  Solving for Uy, Initial residual = 0.0638545, Final residual = 0.000533482, No Iterations 15
smoothSolver:  Solving for Uz, Initial residual = 0.0952848, Final residual = 0.000844434, No Iterations 13
smoothSolver:  Solving for h, Initial residual = 0.0154783, Final residual = 9.75562e-05, No Iterations 10
GAMG:  Solving for p, Initial residual = 0.08772, Final residual = 0.000632813, No Iterations 1
GAMG:  Solving for p, Initial residual = 0.00159829, Final residual = 9.36413e-06, No Iterations 2
GAMG:  Solving for p, Initial residual = 0.000110935, Final residual = 6.059e-07, No Iterations 3
time step continuity errors : sum local = 0.373073, global = 0.286661, cumulative = 0.38268
pressureControl: p min -5.46559e+06
ExecutionTime = 0.84 s  ClockTime = 1 s

Time = 17

Courant Number mean: 30785.2 max: 2.0201e+07
smoothSolver:  Solving for Ux, Initial residual = 0.0814513, Final residual = 0.00067153, No Iterations 15
smoothSolver:  Solving for Uy, Initial residual = 0.0772596, Final residual = 0.000613158, No Iterations 15
smoothSolver:  Solving for Uz, Initial residual = 0.105902, Final residual = 0.000954162, No Iterations 13
smoothSolver:  Solving for h, Initial residual = 0.0210505, Final residual = 0.000127646, No Iterations 10
GAMG:  Solving for p, Initial residual = 0.0932978, Final residual = 0.000786396, No Iterations 1
GAMG:  Solving for p, Initial residual = 0.00191324, Final residual = 7.09933e-06, No Iterations 3
GAMG:  Solving for p, Initial residual = 0.000170629, Final residual = 1.0811e-06, No Iterations 2
time step continuity errors : sum local = 0.342467, global = 0.278562, cumulative = 0.661242
pressureControl: p min -5.58399e+06
ExecutionTime = 0.89 s  ClockTime = 1 s

writeObjects writeThermophysicalProperties write:
    writing object thermo:alpha
    writing object thermo:mu

Time = 18

Courant Number mean: 24991.6 max: 2.01021e+07
smoothSolver:  Solving for Ux, Initial residual = 0.0807647, Final residual = 0.000643622, No Iterations 15
smoothSolver:  Solving for Uy, Initial residual = 0.0843542, Final residual = 0.000812324, No Iterations 14
smoothSolver:  Solving for Uz, Initial residual = 0.109436, Final residual = 0.00103347, No Iterations 13
smoothSolver:  Solving for h, Initial residual = 0.0328292, Final residual = 0.000193052, No Iterations 10
GAMG:  Solving for p, Initial residual = 0.104438, Final residual = 0.000150234, No Iterations 2
GAMG:  Solving for p, Initial residual = 0.00185786, Final residual = 7.15563e-06, No Iterations 3
GAMG:  Solving for p, Initial residual = 0.000233019, Final residual = 1.73916e-06, No Iterations 2
time step continuity errors : sum local = 0.240392, global = 0.212507, cumulative = 0.873748
pressureControl: p min -5.57583e+06
ExecutionTime = 0.93 s  ClockTime = 1 s

Time = 19

Courant Number mean: 22059.4 max: 2.00198e+07
smoothSolver:  Solving for Ux, Initial residual = 0.0788481, Final residual = 0.000774942, No Iterations 14
smoothSolver:  Solving for Uy, Initial residual = 0.0850942, Final residual = 0.000803627, No Iterations 14
smoothSolver:  Solving for Uz, Initial residual = 0.107957, Final residual = 0.000832842, No Iterations 14
smoothSolver:  Solving for h, Initial residual = 0.0522403, Final residual = 0.000308262, No Iterations 10
GAMG:  Solving for p, Initial residual = 0.122353, Final residual = 0.00038883, No Iterations 2
GAMG:  Solving for p, Initial residual = 0.00321353, Final residual = 1.63852e-05, No Iterations 3
GAMG:  Solving for p, Initial residual = 0.000534169, Final residual = 4.26835e-06, No Iterations 2
time step continuity errors : sum local = 0.238657, global = 0.215474, cumulative = 1.08922
pressureControl: p min -5.54846e+06
ExecutionTime = 0.99 s  ClockTime = 1 s

Time = 20

Courant Number mean: 20801.6 max: 1.99247e+07
smoothSolver:  Solving for Ux, Initial residual = 0.0760235, Final residual = 0.000743072, No Iterations 14
smoothSolver:  Solving for Uy, Initial residual = 0.0831743, Final residual = 0.000769769, No Iterations 14
smoothSolver:  Solving for Uz, Initial residual = 0.104998, Final residual = 0.000868834, No Iterations 14
smoothSolver:  Solving for h, Initial residual = 0.0733573, Final residual = 0.000453053, No Iterations 10
GAMG:  Solving for p, Initial residual = 0.142872, Final residual = 0.00101552, No Iterations 2
GAMG:  Solving for p, Initial residual = 0.00655615, Final residual = 3.94387e-05, No Iterations 3
GAMG:  Solving for p, Initial residual = 0.00127215, Final residual = 1.03899e-05, No Iterations 2
time step continuity errors : sum local = 0.234949, global = 0.212524, cumulative = 1.30175
pressureControl: p min -5.47067e+06
ExecutionTime = 1.03 s  ClockTime = 2 s

Time = 21

Courant Number mean: 20272 max: 1.98033e+07
smoothSolver:  Solving for Ux, Initial residual = 0.0731324, Final residual = 0.000722554, No Iterations 14
smoothSolver:  Solving for Uy, Initial residual = 0.0799838, Final residual = 0.000748618, No Iterations 14
smoothSolver:  Solving for Uz, Initial residual = 0.10267, Final residual = 0.000892933, No Iterations 14
smoothSolver:  Solving for h, Initial residual = 0.0825756, Final residual = 0.000587269, No Iterations 10
GAMG:  Solving for p, Initial residual = 0.153594, Final residual = 0.000654059, No Iterations 3
GAMG:  Solving for p, Initial residual = 0.01148, Final residual = 8.95381e-05, No Iterations 2
GAMG:  Solving for p, Initial residual = 0.00268106, Final residual = 1.22798e-05, No Iterations 3
time step continuity errors : sum local = 0.121062, global = 0.0958946, cumulative = 1.39764
pressureControl: p min -5.41763e+06
ExecutionTime = 1.07 s  ClockTime = 2 s

Time = 22

Courant Number mean: 20056 max: 1.96583e+07
smoothSolver:  Solving for Ux, Initial residual = 0.0708711, Final residual = 0.000562863, No Iterations 15
smoothSolver:  Solving for Uy, Initial residual = 0.0769282, Final residual = 0.000738171, No Iterations 14
smoothSolver:  Solving for Uz, Initial residual = 0.100923, Final residual = 0.000910367, No Iterations 14
smoothSolver:  Solving for h, Initial residual = 0.080004, Final residual = 0.000623104, No Iterations 10
GAMG:  Solving for p, Initial residual = 0.16535, Final residual = 0.00114112, No Iterations 3
GAMG:  Solving for p, Initial residual = 0.0215678, Final residual = 0.000176044, No Iterations 2
GAMG:  Solving for p, Initial residual = 0.00530754, Final residual = 2.43814e-05, No Iterations 3
time step continuity errors : sum local = 0.120853, global = 0.0915717, cumulative = 1.48921
pressureControl: p min -5.34866e+06
ExecutionTime = 1.12 s  ClockTime = 2 s

Time = 23

Courant Number mean: 19968.2 max: 1.94966e+07
smoothSolver:  Solving for Ux, Initial residual = 0.0692045, Final residual = 0.00054923, No Iterations 15
smoothSolver:  Solving for Uy, Initial residual = 0.0749565, Final residual = 0.000723839, No Iterations 14
smoothSolver:  Solving for Uz, Initial residual = 0.0998112, Final residual = 0.000920962, No Iterations 14
smoothSolver:  Solving for h, Initial residual = 0.0699435, Final residual = 0.000547715, No Iterations 10
GAMG:  Solving for p, Initial residual = 0.169672, Final residual = 0.00142367, No Iterations 3
GAMG:  Solving for p, Initial residual = 0.0297847, Final residual = 0.000243071, No Iterations 2
GAMG:  Solving for p, Initial residual = 0.00750568, Final residual = 3.40897e-05, No Iterations 3
time step continuity errors : sum local = 0.118815, global = 0.0885697, cumulative = 1.57778
pressureControl: p min -5.29527e+06
ExecutionTime = 1.17 s  ClockTime = 2 s

Time = 24

Courant Number mean: 19919.4 max: 1.93285e+07
smoothSolver:  Solving for Ux, Initial residual = 0.0671235, Final residual = 0.000538168, No Iterations 15
smoothSolver:  Solving for Uy, Initial residual = 0.0727664, Final residual = 0.000717605, No Iterations 14
smoothSolver:  Solving for Uz, Initial residual = 0.0986411, Final residual = 0.000917132, No Iterations 14
smoothSolver:  Solving for h, Initial residual = 0.0603959, Final residual = 0.000493046, No Iterations 10
GAMG:  Solving for p, Initial residual = 0.160595, Final residual = 0.00141187, No Iterations 3
GAMG:  Solving for p, Initial residual = 0.0335015, Final residual = 0.000268745, No Iterations 2
GAMG:  Solving for p, Initial residual = 0.00849496, Final residual = 3.75701e-05, No Iterations 3
time step continuity errors : sum local = 0.11541, global = 0.0876715, cumulative = 1.66545
pressureControl: p min -5.22565e+06
ExecutionTime = 1.22 s  ClockTime = 2 s

Time = 25

Courant Number mean: 19888.8 max: 1.91578e+07
smoothSolver:  Solving for Ux, Initial residual = 0.0652688, Final residual = 0.000530781, No Iterations 15
smoothSolver:  Solving for Uy, Initial residual = 0.0705342, Final residual = 0.000565858, No Iterations 15
smoothSolver:  Solving for Uz, Initial residual = 0.0972729, Final residual = 0.000899867, No Iterations 14
smoothSolver:  Solving for h, Initial residual = 0.0533656, Final residual = 0.000463392, No Iterations 10
GAMG:  Solving for p, Initial residual = 0.148457, Final residual = 0.00130599, No Iterations 3
GAMG:  Solving for p, Initial residual = 0.0364412, Final residual = 0.000283134, No Iterations 2
GAMG:  Solving for p, Initial residual = 0.00922488, Final residual = 3.97701e-05, No Iterations 3
time step continuity errors : sum local = 0.111772, global = 0.0858913, cumulative = 1.75135
pressureControl: p min -5.18794e+06
ExecutionTime = 1.26 s  ClockTime = 2 s

Time = 26

Courant Number mean: 19856.7 max: 1.8989e+07
smoothSolver:  Solving for Ux, Initial residual = 0.0633766, Final residual = 0.000525578, No Iterations 15
smoothSolver:  Solving for Uy, Initial residual = 0.0685646, Final residual = 0.000557597, No Iterations 15
smoothSolver:  Solving for Uz, Initial residual = 0.0954631, Final residual = 0.000876274, No Iterations 14
smoothSolver:  Solving for h, Initial residual = 0.0468407, Final residual = 0.000451853, No Iterations 10
GAMG:  Solving for p, Initial residual = 0.140136, Final residual = 0.00120858, No Iterations 3
GAMG:  Solving for p, Initial residual = 0.0385214, Final residual = 0.000290539, No Iterations 2
GAMG:  Solving for p, Initial residual = 0.00977524, Final residual = 4.13036e-05, No Iterations 3
time step continuity errors : sum local = 0.108864, global = 0.0849286, cumulative = 1.83627
pressureControl: p min -5.17316e+06
ExecutionTime = 1.31 s  ClockTime = 2 s

Time = 27

Courant Number mean: 19829.9 max: 1.88284e+07
smoothSolver:  Solving for Ux, Initial residual = 0.061648, Final residual = 0.000519878, No Iterations 15
smoothSolver:  Solving for Uy, Initial residual = 0.0667695, Final residual = 0.000550699, No Iterations 15
smoothSolver:  Solving for Uz, Initial residual = 0.0935553, Final residual = 0.000852457, No Iterations 14
smoothSolver:  Solving for h, Initial residual = 0.0427296, Final residual = 0.000284491, No Iterations 12
GAMG:  Solving for p, Initial residual = 0.139314, Final residual = 0.00116843, No Iterations 3
GAMG:  Solving for p, Initial residual = 0.0387696, Final residual = 0.000287092, No Iterations 2
GAMG:  Solving for p, Initial residual = 0.00995371, Final residual = 4.14318e-05, No Iterations 3
time step continuity errors : sum local = 0.106054, global = 0.0837026, cumulative = 1.91998
pressureControl: p min -5.17891e+06
ExecutionTime = 1.35 s  ClockTime = 2 s

Time = 28

Courant Number mean: 19809.6 max: 1.86798e+07
smoothSolver:  Solving for Ux, Initial residual = 0.0600916, Final residual = 0.000514094, No Iterations 15
smoothSolver:  Solving for Uy, Initial residual = 0.0651744, Final residual = 0.000544657, No Iterations 15
smoothSolver:  Solving for Uz, Initial residual = 0.0917724, Final residual = 0.000831264, No Iterations 14
smoothSolver:  Solving for h, Initial residual = 0.0397436, Final residual = 0.000286697, No Iterations 12
GAMG:  Solving for p, Initial residual = 0.139389, Final residual = 0.00113231, No Iterations 3
GAMG:  Solving for p, Initial residual = 0.0380942, Final residual = 0.000275169, No Iterations 2
GAMG:  Solving for p, Initial residual = 0.0101784, Final residual = 4.16007e-05, No Iterations 3
time step continuity errors : sum local = 0.104285, global = 0.0822235, cumulative = 2.0022
pressureControl: p min -5.1581e+06
ExecutionTime = 1.4 s  ClockTime = 2 s

Time = 29

Courant Number mean: 19793.3 max: 1.85447e+07
smoothSolver:  Solving for Ux, Initial residual = 0.0585878, Final residual = 0.000507246, No Iterations 15
smoothSolver:  Solving for Uy, Initial residual = 0.0636408, Final residual = 0.000539297, No Iterations 15
smoothSolver:  Solving for Uz, Initial residual = 0.0898528, Final residual = 0.000811425, No Iterations 14
smoothSolver:  Solving for h, Initial residual = 0.0375383, Final residual = 0.000292819, No Iterations 12
GAMG:  Solving for p, Initial residual = 0.139954, Final residual = 0.00109951, No Iterations 3
GAMG:  Solving for p, Initial residual = 0.0374549, Final residual = 0.000263772, No Iterations 2
GAMG:  Solving for p, Initial residual = 0.0102241, Final residual = 4.07332e-05, No Iterations 3
time step continuity errors : sum local = 0.0999805, global = 0.0783246, cumulative = 2.08052
pressureControl: p min -5.13304e+06
ExecutionTime = 1.45 s  ClockTime = 2 s

Time = 30

Courant Number mean: 19778.9 max: 1.84237e+07
smoothSolver:  Solving for Ux, Initial residual = 0.0571429, Final residual = 0.000498824, No Iterations 15
smoothSolver:  Solving for Uy, Initial residual = 0.0621599, Final residual = 0.000534133, No Iterations 15
smoothSolver:  Solving for Uz, Initial residual = 0.0878099, Final residual = 0.000791537, No Iterations 14
smoothSolver:  Solving for h, Initial residual = 0.0358643, Final residual = 0.00030281, No Iterations 12
GAMG:  Solving for p, Initial residual = 0.140416, Final residual = 0.0010732, No Iterations 3
GAMG:  Solving for p, Initial residual = 0.0360735, Final residual = 0.000248719, No Iterations 2
GAMG:  Solving for p, Initial residual = 0.010255, Final residual = 0.000102037, No Iterations 2
time step continuity errors : sum local = 0.253652, global = 0.210659, cumulative = 2.29118
pressureControl: p min -5.0782e+06
ExecutionTime = 1.49 s  ClockTime = 2 s

Time = 31

Courant Number mean: 19767.3 max: 1.83161e+07
smoothSolver:  Solving for Ux, Initial residual = 0.0556782, Final residual = 0.000490895, No Iterations 15
smoothSolver:  Solving for Uy, Initial residual = 0.0605316, Final residual = 0.000527193, No Iterations 15
smoothSolver:  Solving for Uz, Initial residual = 0.0854836, Final residual = 0.000769678, No Iterations 14
smoothSolver:  Solving for h, Initial residual = 0.0342782, Final residual = 0.000317484, No Iterations 12
GAMG:  Solving for p, Initial residual = 0.140232, Final residual = 0.00104408, No Iterations 3
GAMG:  Solving for p, Initial residual = 0.0357114, Final residual = 0.000242803, No Iterations 2
GAMG:  Solving for p, Initial residual = 0.00990977, Final residual = 9.52679e-05, No Iterations 2
time step continuity errors : sum local = 0.241697, global = 0.199251, cumulative = 2.49044
pressureControl: p min -5.03416e+06
ExecutionTime = 1.54 s  ClockTime = 2 s

Time = 32

Courant Number mean: 19756 max: 1.82214e+07
smoothSolver:  Solving for Ux, Initial residual = 0.0541697, Final residual = 0.00048225, No Iterations 15
smoothSolver:  Solving for Uy, Initial residual = 0.0588666, Final residual = 0.000518521, No Iterations 15
smoothSolver:  Solving for Uz, Initial residual = 0.0831433, Final residual = 0.000747741, No Iterations 14
smoothSolver:  Solving for h, Initial residual = 0.0325181, Final residual = 0.00018208, No Iterations 14
GAMG:  Solving for p, Initial residual = 0.140049, Final residual = 0.00102835, No Iterations 3
GAMG:  Solving for p, Initial residual = 0.0340485, Final residual = 0.000229257, No Iterations 2
GAMG:  Solving for p, Initial residual = 0.00989137, Final residual = 9.48257e-05, No Iterations 2
time step continuity errors : sum local = 0.246837, global = 0.200627, cumulative = 2.69106
pressureControl: p min -5.03805e+06
ExecutionTime = 1.58 s  ClockTime = 2 s

Time = 33

Courant Number mean: 19746.5 max: 1.8138e+07
smoothSolver:  Solving for Ux, Initial residual = 0.0527857, Final residual = 0.000472221, No Iterations 15
smoothSolver:  Solving for Uy, Initial residual = 0.0571828, Final residual = 0.000507193, No Iterations 15
smoothSolver:  Solving for Uz, Initial residual = 0.080709, Final residual = 0.0007254, No Iterations 14
smoothSolver:  Solving for h, Initial residual = 0.0312567, Final residual = 0.000194781, No Iterations 14
GAMG:  Solving for p, Initial residual = 0.140911, Final residual = 0.001021, No Iterations 3
GAMG:  Solving for p, Initial residual = 0.0339083, Final residual = 0.00023164, No Iterations 2
GAMG:  Solving for p, Initial residual = 0.00941405, Final residual = 8.81948e-05, No Iterations 2
time step continuity errors : sum local = 0.23343, global = 0.187296, cumulative = 2.87836
pressureControl: p min -4.89623e+06
ExecutionTime = 1.63 s  ClockTime = 2 s

Time = 34

Courant Number mean: 19737.2 max: 1.80649e+07
smoothSolver:  Solving for Ux, Initial residual = 0.0512217, Final residual = 0.000461752, No Iterations 15
smoothSolver:  Solving for Uy, Initial residual = 0.0553912, Final residual = 0.00049417, No Iterations 15
smoothSolver:  Solving for Uz, Initial residual = 0.0779251, Final residual = 0.000702001, No Iterations 14
smoothSolver:  Solving for h, Initial residual = 0.0298496, Final residual = 0.000208129, No Iterations 14
GAMG:  Solving for p, Initial residual = 0.140436, Final residual = 0.00101267, No Iterations 3
GAMG:  Solving for p, Initial residual = 0.0324464, Final residual = 0.000221685, No Iterations 2
GAMG:  Solving for p, Initial residual = 0.00945434, Final residual = 8.701e-05, No Iterations 2
time step continuity errors : sum local = 0.235384, global = 0.183112, cumulative = 3.06147
pressureControl: p min -4.99417e+06
ExecutionTime = 1.68 s  ClockTime = 2 s

writeObjects writeThermophysicalProperties write:
    writing object thermo:alpha
    writing object thermo:mu

Time = 35

Courant Number mean: 19729.7 max: 1.80012e+07
smoothSolver:  Solving for Ux, Initial residual = 0.0498141, Final residual = 0.00045281, No Iterations 15
smoothSolver:  Solving for Uy, Initial residual = 0.0536315, Final residual = 0.000480347, No Iterations 15
smoothSolver:  Solving for Uz, Initial residual = 0.0753859, Final residual = 0.00067916, No Iterations 14
smoothSolver:  Solving for h, Initial residual = 0.0282542, Final residual = 0.000221369, No Iterations 14
GAMG:  Solving for p, Initial residual = 0.140533, Final residual = 0.000989774, No Iterations 3
GAMG:  Solving for p, Initial residual = 0.0327562, Final residual = 0.000225812, No Iterations 2
GAMG:  Solving for p, Initial residual = 0.00913882, Final residual = 8.08758e-05, No Iterations 2
time step continuity errors : sum local = 0.221077, global = 0.167756, cumulative = 3.22923
pressureControl: p min -4.84265e+06
ExecutionTime = 1.72 s  ClockTime = 2 s

Time = 36

Courant Number mean: 19722.5 max: 1.79458e+07
smoothSolver:  Solving for Ux, Initial residual = 0.0481878, Final residual = 0.000443701, No Iterations 15
smoothSolver:  Solving for Uy, Initial residual = 0.0517801, Final residual = 0.000470108, No Iterations 15
smoothSolver:  Solving for Uz, Initial residual = 0.0725741, Final residual = 0.000658314, No Iterations 14
smoothSolver:  Solving for h, Initial residual = 0.0268169, Final residual = 0.000233398, No Iterations 14
GAMG:  Solving for p, Initial residual = 0.136839, Final residual = 0.000960527, No Iterations 3
GAMG:  Solving for p, Initial residual = 0.0310329, Final residual = 0.000214733, No Iterations 2
GAMG:  Solving for p, Initial residual = 0.00915249, Final residual = 8.06389e-05, No Iterations 2
time step continuity errors : sum local = 0.225946, global = 0.165213, cumulative = 3.39444
pressureControl: p min -4.95682e+06
ExecutionTime = 1.78 s  ClockTime = 2 s

Time = 37

Courant Number mean: 19717.1 max: 1.78978e+07
smoothSolver:  Solving for Ux, Initial residual = 0.0467443, Final residual = 0.000434561, No Iterations 15
smoothSolver:  Solving for Uy, Initial residual = 0.0499618, Final residual = 0.000459921, No Iterations 15
smoothSolver:  Solving for Uz, Initial residual = 0.0700533, Final residual = 0.000634205, No Iterations 14
smoothSolver:  Solving for h, Initial residual = 0.0254428, Final residual = 0.000244135, No Iterations 14
GAMG:  Solving for p, Initial residual = 0.134423, Final residual = 0.000920329, No Iterations 3
GAMG:  Solving for p, Initial residual = 0.031343, Final residual = 0.000215579, No Iterations 2
GAMG:  Solving for p, Initial residual = 0.00881299, Final residual = 7.47517e-05, No Iterations 2
time step continuity errors : sum local = 0.21176, global = 0.153296, cumulative = 3.54773
pressureControl: p min -4.80821e+06
ExecutionTime = 1.82 s  ClockTime = 2 s

Time = 38

Courant Number mean: 19710.9 max: 1.7856e+07
smoothSolver:  Solving for Ux, Initial residual = 0.0450919, Final residual = 0.000426374, No Iterations 15
smoothSolver:  Solving for Uy, Initial residual = 0.0481048, Final residual = 0.000450691, No Iterations 15
smoothSolver:  Solving for Uz, Initial residual = 0.0674006, Final residual = 0.00061358, No Iterations 14
smoothSolver:  Solving for h, Initial residual = 0.0242011, Final residual = 8.50525e-05, No Iterations 16
GAMG:  Solving for p, Initial residual = 0.129524, Final residual = 0.00089226, No Iterations 3
GAMG:  Solving for p, Initial residual = 0.0295271, Final residual = 0.000205653, No Iterations 2
GAMG:  Solving for p, Initial residual = 0.00882964, Final residual = 7.53688e-05, No Iterations 2
time step continuity errors : sum local = 0.219268, global = 0.153184, cumulative = 3.70092
pressureControl: p min -4.99343e+06
ExecutionTime = 1.87 s  ClockTime = 2 s

Time = 39

Courant Number mean: 19707.3 max: 1.78202e+07
smoothSolver:  Solving for Ux, Initial residual = 0.0437403, Final residual = 0.000418453, No Iterations 15
smoothSolver:  Solving for Uy, Initial residual = 0.0464111, Final residual = 0.000442084, No Iterations 15
smoothSolver:  Solving for Uz, Initial residual = 0.0650433, Final residual = 0.000589323, No Iterations 14
smoothSolver:  Solving for h, Initial residual = 0.0231088, Final residual = 8.65048e-05, No Iterations 16
GAMG:  Solving for p, Initial residual = 0.126596, Final residual = 0.000847936, No Iterations 3
GAMG:  Solving for p, Initial residual = 0.0299628, Final residual = 0.00020422, No Iterations 2
GAMG:  Solving for p, Initial residual = 0.00847765, Final residual = 6.98719e-05, No Iterations 2
time step continuity errors : sum local = 0.205287, global = 0.142929, cumulative = 3.84385
pressureControl: p min -4.88328e+06
ExecutionTime = 1.91 s  ClockTime = 2 s

Time = 40

Courant Number mean: 19701.8 max: 1.77888e+07
smoothSolver:  Solving for Ux, Initial residual = 0.0421592, Final residual = 0.000411307, No Iterations 15
smoothSolver:  Solving for Uy, Initial residual = 0.0447178, Final residual = 0.000434071, No Iterations 15
smoothSolver:  Solving for Uz, Initial residual = 0.0626228, Final residual = 0.000571578, No Iterations 14
smoothSolver:  Solving for h, Initial residual = 0.0220551, Final residual = 8.75865e-05, No Iterations 16
GAMG:  Solving for p, Initial residual = 0.121875, Final residual = 0.000827277, No Iterations 3
GAMG:  Solving for p, Initial residual = 0.0281744, Final residual = 0.000197127, No Iterations 2
GAMG:  Solving for p, Initial residual = 0.00856368, Final residual = 7.1283e-05, No Iterations 2
time step continuity errors : sum local = 0.214975, global = 0.143971, cumulative = 3.98782
pressureControl: p min -5.12717e+06
ExecutionTime = 1.96 s  ClockTime = 2 s

Time = 41

Courant Number mean: 19699.7 max: 1.7762e+07
smoothSolver:  Solving for Ux, Initial residual = 0.0409791, Final residual = 0.000404553, No Iterations 15
smoothSolver:  Solving for Uy, Initial residual = 0.0432662, Final residual = 0.000426267, No Iterations 15
smoothSolver:  Solving for Uz, Initial residual = 0.0605057, Final residual = 0.00054893, No Iterations 14
smoothSolver:  Solving for h, Initial residual = 0.0210179, Final residual = 8.79689e-05, No Iterations 16
GAMG:  Solving for p, Initial residual = 0.119527, Final residual = 0.000785004, No Iterations 3
GAMG:  Solving for p, Initial residual = 0.028817, Final residual = 0.000193409, No Iterations 2
GAMG:  Solving for p, Initial residual = 0.00820157, Final residual = 6.60248e-05, No Iterations 2
time step continuity errors : sum local = 0.200422, global = 0.136164, cumulative = 4.12398
pressureControl: p min -5.0129e+06
ExecutionTime = 2 s  ClockTime = 2 s

Time = 42

Courant Number mean: 19695.6 max: 1.77384e+07
smoothSolver:  Solving for Ux, Initial residual = 0.0395531, Final residual = 0.000318932, No Iterations 16
smoothSolver:  Solving for Uy, Initial residual = 0.0417746, Final residual = 0.000335571, No Iterations 16
smoothSolver:  Solving for Uz, Initial residual = 0.0583369, Final residual = 0.000535127, No Iterations 14
smoothSolver:  Solving for h, Initial residual = 0.0200922, Final residual = 8.79883e-05, No Iterations 16
GAMG:  Solving for p, Initial residual = 0.11548, Final residual = 0.000773046, No Iterations 3
GAMG:  Solving for p, Initial residual = 0.0271691, Final residual = 0.000190466, No Iterations 2
GAMG:  Solving for p, Initial residual = 0.00840229, Final residual = 6.85744e-05, No Iterations 2
time step continuity errors : sum local = 0.213329, global = 0.138968, cumulative = 4.26295
pressureControl: p min -5.27427e+06
ExecutionTime = 2.05 s  ClockTime = 3 s

Time = 43

Courant Number mean: 19695.5 max: 1.77187e+07
smoothSolver:  Solving for Ux, Initial residual = 0.038598, Final residual = 0.000313943, No Iterations 16
smoothSolver:  Solving for Uy, Initial residual = 0.0405819, Final residual = 0.00032952, No Iterations 16
smoothSolver:  Solving for Uz, Initial residual = 0.0564757, Final residual = 0.000515402, No Iterations 14
smoothSolver:  Solving for h, Initial residual = 0.0192054, Final residual = 8.74886e-05, No Iterations 16
GAMG:  Solving for p, Initial residual = 0.114044, Final residual = 0.000735302, No Iterations 3
GAMG:  Solving for p, Initial residual = 0.0279921, Final residual = 0.000185633, No Iterations 2
GAMG:  Solving for p, Initial residual = 0.00803181, Final residual = 6.32828e-05, No Iterations 2
time step continuity errors : sum local = 0.197639, global = 0.13131, cumulative = 4.39426
pressureControl: p min -5.16912e+06
ExecutionTime = 2.09 s  ClockTime = 3 s

Time = 44

Courant Number mean: 19693.1 max: 1.77011e+07
smoothSolver:  Solving for Ux, Initial residual = 0.0373211, Final residual = 0.000309155, No Iterations 16
smoothSolver:  Solving for Uy, Initial residual = 0.0392728, Final residual = 0.00032322, No Iterations 16
smoothSolver:  Solving for Uz, Initial residual = 0.054464, Final residual = 0.000504892, No Iterations 14
smoothSolver:  Solving for h, Initial residual = 0.0184026, Final residual = 8.69088e-05, No Iterations 16
GAMG:  Solving for p, Initial residual = 0.110564, Final residual = 0.000728256, No Iterations 3
GAMG:  Solving for p, Initial residual = 0.0263163, Final residual = 0.000183873, No Iterations 2
GAMG:  Solving for p, Initial residual = 0.00819792, Final residual = 6.60462e-05, No Iterations 2
time step continuity errors : sum local = 0.211355, global = 0.135056, cumulative = 4.52932
pressureControl: p min -5.43611e+06
ExecutionTime = 2.14 s  ClockTime = 3 s

Time = 45

Courant Number mean: 19696.3 max: 1.8781e+07
smoothSolver:  Solving for Ux, Initial residual = 0.0365249, Final residual = 0.00030427, No Iterations 16
smoothSolver:  Solving for Uy, Initial residual = 0.0382528, Final residual = 0.000317601, No Iterations 16
smoothSolver:  Solving for Uz, Initial residual = 0.0528842, Final residual = 0.000486996, No Iterations 14
smoothSolver:  Solving for h, Initial residual = 0.0175397, Final residual = 8.60106e-05, No Iterations 16
GAMG:  Solving for p, Initial residual = 0.110061, Final residual = 0.000694909, No Iterations 3
GAMG:  Solving for p, Initial residual = 0.0274717, Final residual = 0.000178315, No Iterations 2
GAMG:  Solving for p, Initial residual = 0.00796827, Final residual = 6.09291e-05, No Iterations 2
time step continuity errors : sum local = 0.195302, global = 0.128247, cumulative = 4.65756
pressureControl: p min -5.25641e+06
ExecutionTime = 2.19 s  ClockTime = 3 s

Time = 46

Courant Number mean: 19697.2 max: 2.00764e+07
smoothSolver:  Solving for Ux, Initial residual = 0.0354002, Final residual = 0.000299387, No Iterations 16
smoothSolver:  Solving for Uy, Initial residual = 0.0371197, Final residual = 0.000311732, No Iterations 16
smoothSolver:  Solving for Uz, Initial residual = 0.0512345, Final residual = 0.000479374, No Iterations 14
smoothSolver:  Solving for h, Initial residual = 0.0167287, Final residual = 8.5269e-05, No Iterations 16
GAMG:  Solving for p, Initial residual = 0.107371, Final residual = 0.00069178, No Iterations 3
GAMG:  Solving for p, Initial residual = 0.0258536, Final residual = 0.000179144, No Iterations 2
GAMG:  Solving for p, Initial residual = 0.00825411, Final residual = 6.54548e-05, No Iterations 2
time step continuity errors : sum local = 0.215158, global = 0.135612, cumulative = 4.79317
pressureControl: p min -5.64436e+06
ExecutionTime = 2.23 s  ClockTime = 3 s

Time = 47

Courant Number mean: 19704.5 max: 2.22125e+07
smoothSolver:  Solving for Ux, Initial residual = 0.0347448, Final residual = 0.0002948, No Iterations 16
smoothSolver:  Solving for Uy, Initial residual = 0.0362848, Final residual = 0.000306409, No Iterations 16
smoothSolver:  Solving for Uz, Initial residual = 0.0498639, Final residual = 0.000462563, No Iterations 14
smoothSolver:  Solving for h, Initial residual = 0.0159288, Final residual = 8.44371e-05, No Iterations 16
GAMG:  Solving for p, Initial residual = 0.107727, Final residual = 0.000660693, No Iterations 3
GAMG:  Solving for p, Initial residual = 0.0272376, Final residual = 0.00017271, No Iterations 2
GAMG:  Solving for p, Initial residual = 0.00799005, Final residual = 5.96706e-05, No Iterations 2
time step continuity errors : sum local = 0.196262, global = 0.1279, cumulative = 4.92107
pressureControl: p min -5.58218e+06
ExecutionTime = 2.28 s  ClockTime = 3 s

Time = 48

Courant Number mean: 19709.2 max: 2.419e+07
smoothSolver:  Solving for Ux, Initial residual = 0.0337567, Final residual = 0.000290227, No Iterations 16
smoothSolver:  Solving for Uy, Initial residual = 0.035312, Final residual = 0.000300855, No Iterations 16
smoothSolver:  Solving for Uz, Initial residual = 0.0484202, Final residual = 0.00045715, No Iterations 14
smoothSolver:  Solving for h, Initial residual = 0.0152593, Final residual = 8.38955e-05, No Iterations 16
GAMG:  Solving for p, Initial residual = 0.105332, Final residual = 0.000659868, No Iterations 3
GAMG:  Solving for p, Initial residual = 0.0254756, Final residual = 0.000175043, No Iterations 2
GAMG:  Solving for p, Initial residual = 0.00830711, Final residual = 6.46821e-05, No Iterations 2
time step continuity errors : sum local = 0.219034, global = 0.136813, cumulative = 5.05789
pressureControl: p min -5.95626e+06
ExecutionTime = 2.32 s  ClockTime = 3 s

Time = 49

Courant Number mean: 19721.9 max: 2.71653e+07
smoothSolver:  Solving for Ux, Initial residual = 0.033239, Final residual = 0.000285968, No Iterations 16
smoothSolver:  Solving for Uy, Initial residual = 0.0346439, Final residual = 0.000296071, No Iterations 16
smoothSolver:  Solving for Uz, Initial residual = 0.0472951, Final residual = 0.00044155, No Iterations 14
smoothSolver:  Solving for h, Initial residual = 0.0145447, Final residual = 8.33226e-05, No Iterations 16
GAMG:  Solving for p, Initial residual = 0.106582, Final residual = 0.000628729, No Iterations 3
GAMG:  Solving for p, Initial residual = 0.0272076, Final residual = 0.000167029, No Iterations 2
GAMG:  Solving for p, Initial residual = 0.00812998, Final residual = 5.84722e-05, No Iterations 2
time step continuity errors : sum local = 0.198158, global = 0.129166, cumulative = 5.18705
pressureControl: p max 2.16384e+07
pressureControl: p min -5.84781e+06
ExecutionTime = 2.36 s  ClockTime = 3 s

Time = 50

Courant Number mean: 19731.8 max: 3.00518e+07
smoothSolver:  Solving for Ux, Initial residual = 0.0323648, Final residual = 0.00028174, No Iterations 16
smoothSolver:  Solving for Uy, Initial residual = 0.0338005, Final residual = 0.000290986, No Iterations 16
smoothSolver:  Solving for Uz, Initial residual = 0.0460502, Final residual = 0.000438875, No Iterations 14
smoothSolver:  Solving for h, Initial residual = 0.0138914, Final residual = 8.30907e-05, No Iterations 16
GAMG:  Solving for p, Initial residual = 0.104428, Final residual = 0.000631186, No Iterations 3
GAMG:  Solving for p, Initial residual = 0.0253058, Final residual = 0.000171386, No Iterations 2
GAMG:  Solving for p, Initial residual = 0.00845337, Final residual = 6.42996e-05, No Iterations 2
time step continuity errors : sum local = 0.225728, global = 0.140239, cumulative = 5.32729
pressureControl: p max 2.01284e+07
pressureControl: p min -6.22602e+06
ExecutionTime = 2.41 s  ClockTime = 3 s

Time = 51

Courant Number mean: 19752.5 max: 3.43385e+07
smoothSolver:  Solving for Ux, Initial residual = 0.0319488, Final residual = 0.000277957, No Iterations 16
smoothSolver:  Solving for Uy, Initial residual = 0.0332688, Final residual = 0.000286838, No Iterations 16
smoothSolver:  Solving for Uz, Initial residual = 0.0451934, Final residual = 0.000424054, No Iterations 14
smoothSolver:  Solving for h, Initial residual = 0.0132513, Final residual = 8.28191e-05, No Iterations 16
GAMG:  Solving for p, Initial residual = 0.106723, Final residual = 0.000597903, No Iterations 3
GAMG:  Solving for p, Initial residual = 0.0274122, Final residual = 0.000162046, No Iterations 2
GAMG:  Solving for p, Initial residual = 0.00834945, Final residual = 5.8029e-05, No Iterations 2
time step continuity errors : sum local = 0.204104, global = 0.133544, cumulative = 5.46084
pressureControl: p max 2.20973e+07
pressureControl: p min -6.08062e+06
ExecutionTime = 2.46 s  ClockTime = 3 s

writeObjects writeThermophysicalProperties write:
    writing object thermo:alpha
    writing object thermo:mu

Time = 52

Courant Number mean: 19770.1 max: 3.86879e+07
smoothSolver:  Solving for Ux, Initial residual = 0.031156, Final residual = 0.000274205, No Iterations 16
smoothSolver:  Solving for Uy, Initial residual = 0.0325237, Final residual = 0.000282191, No Iterations 16
smoothSolver:  Solving for Uz, Initial residual = 0.0441799, Final residual = 0.00042407, No Iterations 14
smoothSolver:  Solving for h, Initial residual = 0.0126962, Final residual = 8.28813e-05, No Iterations 16
GAMG:  Solving for p, Initial residual = 0.104787, Final residual = 0.000603497, No Iterations 3
GAMG:  Solving for p, Initial residual = 0.0253158, Final residual = 0.000170105, No Iterations 2
GAMG:  Solving for p, Initial residual = 0.00871501, Final residual = 6.53538e-05, No Iterations 2
time step continuity errors : sum local = 0.24027, global = 0.148266, cumulative = 5.6091
pressureControl: p max 2.04337e+07
pressureControl: p min -6.50121e+06
ExecutionTime = 2.51 s  ClockTime = 3 s

Time = 53

Courant Number mean: 19803.1 max: 4.49992e+07
smoothSolver:  Solving for Ux, Initial residual = 0.0308587, Final residual = 0.000270882, No Iterations 16
smoothSolver:  Solving for Uy, Initial residual = 0.032099, Final residual = 0.000278636, No Iterations 16
smoothSolver:  Solving for Uz, Initial residual = 0.0435783, Final residual = 0.000409406, No Iterations 14
smoothSolver:  Solving for h, Initial residual = 0.0121158, Final residual = 8.28196e-05, No Iterations 16
GAMG:  Solving for p, Initial residual = 0.108423, Final residual = 0.000565499, No Iterations 3
GAMG:  Solving for p, Initial residual = 0.0279569, Final residual = 0.000157718, No Iterations 2
GAMG:  Solving for p, Initial residual = 0.00875346, Final residual = 5.84513e-05, No Iterations 2
time step continuity errors : sum local = 0.216173, global = 0.142931, cumulative = 5.75203
pressureControl: p max 2.27793e+07
pressureControl: p min -6.38375e+06
ExecutionTime = 2.56 s  ClockTime = 3 s

Time = 54

Courant Number mean: 19832.8 max: 5.16419e+07
smoothSolver:  Solving for Ux, Initial residual = 0.0301195, Final residual = 0.000267314, No Iterations 16
smoothSolver:  Solving for Uy, Initial residual = 0.0314188, Final residual = 0.000274228, No Iterations 16
smoothSolver:  Solving for Uz, Initial residual = 0.0428505, Final residual = 0.000412667, No Iterations 14
smoothSolver:  Solving for h, Initial residual = 0.0116421, Final residual = 8.31183e-05, No Iterations 16
GAMG:  Solving for p, Initial residual = 0.106096, Final residual = 0.000575081, No Iterations 3
GAMG:  Solving for p, Initial residual = 0.0255326, Final residual = 0.000168378, No Iterations 2
GAMG:  Solving for p, Initial residual = 0.00915516, Final residual = 6.62049e-05, No Iterations 2
time step continuity errors : sum local = 0.260633, global = 0.159635, cumulative = 5.91167
pressureControl: p max 2.07639e+07
pressureControl: p min -6.9618e+06
ExecutionTime = 2.6 s  ClockTime = 3 s

Time = 55

Courant Number mean: 19884.8 max: 6.11811e+07
smoothSolver:  Solving for Ux, Initial residual = 0.0299444, Final residual = 0.000264218, No Iterations 16
smoothSolver:  Solving for Uy, Initial residual = 0.0310772, Final residual = 0.000271257, No Iterations 16
smoothSolver:  Solving for Uz, Initial residual = 0.0424587, Final residual = 0.000397084, No Iterations 14
smoothSolver:  Solving for h, Initial residual = 0.0111007, Final residual = 8.31515e-05, No Iterations 16
GAMG:  Solving for p, Initial residual = 0.111572, Final residual = 0.00053314, No Iterations 3
GAMG:  Solving for p, Initial residual = 0.0287741, Final residual = 0.000153679, No Iterations 2
GAMG:  Solving for p, Initial residual = 0.00918387, Final residual = 6.03075e-05, No Iterations 2
time step continuity errors : sum local = 0.239671, global = 0.157684, cumulative = 6.06935
pressureControl: p max 2.33324e+07
pressureControl: p min -6.87225e+06
ExecutionTime = 2.64 s  ClockTime = 3 s

Time = 56

Courant Number mean: 19933.6 max: 7.15816e+07
smoothSolver:  Solving for Ux, Initial residual = 0.0292215, Final residual = 0.000260913, No Iterations 16
smoothSolver:  Solving for Uy, Initial residual = 0.0304476, Final residual = 0.00026707, No Iterations 16
smoothSolver:  Solving for Uz, Initial residual = 0.0420336, Final residual = 0.000402768, No Iterations 14
smoothSolver:  Solving for h, Initial residual = 0.0107043, Final residual = 8.3546e-05, No Iterations 16
GAMG:  Solving for p, Initial residual = 0.108855, Final residual = 0.000545527, No Iterations 3
GAMG:  Solving for p, Initial residual = 0.0258934, Final residual = 0.000170722, No Iterations 2
GAMG:  Solving for p, Initial residual = 0.00977099, Final residual = 6.95897e-05, No Iterations 2
time step continuity errors : sum local = 0.301219, global = 0.180246, cumulative = 6.2496
pressureControl: p max 2.12001e+07
pressureControl: p min -7.58124e+06
ExecutionTime = 2.69 s  ClockTime = 3 s

Time = 57

Courant Number mean: 20016.1 max: 8.62151e+07
smoothSolver:  Solving for Ux, Initial residual = 0.0291688, Final residual = 0.000258337, No Iterations 16
smoothSolver:  Solving for Uy, Initial residual = 0.0301831, Final residual = 0.000264872, No Iterations 16
smoothSolver:  Solving for Uz, Initial residual = 0.0418942, Final residual = 0.000385247, No Iterations 14
smoothSolver:  Solving for h, Initial residual = 0.010239, Final residual = 8.35593e-05, No Iterations 16
GAMG:  Solving for p, Initial residual = 0.1164, Final residual = 0.000488734, No Iterations 3
GAMG:  Solving for p, Initial residual = 0.0299525, Final residual = 0.000146009, No Iterations 2
GAMG:  Solving for p, Initial residual = 0.0099185, Final residual = 6.26408e-05, No Iterations 2
time step continuity errors : sum local = 0.276716, global = 0.18664, cumulative = 6.43624
pressureControl: p max 2.43966e+07
pressureControl: p min -7.54133e+06
ExecutionTime = 2.73 s  ClockTime = 3 s

Time = 58

Courant Number mean: 20097.5 max: 1.02869e+08
smoothSolver:  Solving for Ux, Initial residual = 0.0284585, Final residual = 0.000255147, No Iterations 16
smoothSolver:  Solving for Uy, Initial residual = 0.0295604, Final residual = 0.000260565, No Iterations 16
smoothSolver:  Solving for Uz, Initial residual = 0.0415654, Final residual = 0.00039231, No Iterations 14
smoothSolver:  Solving for h, Initial residual = 0.00993903, Final residual = 8.39941e-05, No Iterations 16
GAMG:  Solving for p, Initial residual = 0.111547, Final residual = 0.000505996, No Iterations 3
GAMG:  Solving for p, Initial residual = 0.0264753, Final residual = 0.000167049, No Iterations 2
GAMG:  Solving for p, Initial residual = 0.010603, Final residual = 7.23069e-05, No Iterations 2
time step continuity errors : sum local = 0.360571, global = 0.218422, cumulative = 6.65466
pressureControl: p max 2.16272e+07
pressureControl: p min -8.39565e+06
ExecutionTime = 2.78 s  ClockTime = 3 s

Time = 59

Courant Number mean: 20231.6 max: 1.26043e+08
smoothSolver:  Solving for Ux, Initial residual = 0.0285547, Final residual = 0.000253305, No Iterations 16
smoothSolver:  Solving for Uy, Initial residual = 0.0294009, Final residual = 0.000259435, No Iterations 16
smoothSolver:  Solving for Uz, Initial residual = 0.0418842, Final residual = 0.000373122, No Iterations 14
smoothSolver:  Solving for h, Initial residual = 0.00950133, Final residual = 8.38856e-05, No Iterations 16
GAMG:  Solving for p, Initial residual = 0.12208, Final residual = 0.000447226, No Iterations 3
GAMG:  Solving for p, Initial residual = 0.031482, Final residual = 0.000138122, No Iterations 2
GAMG:  Solving for p, Initial residual = 0.0107161, Final residual = 6.81517e-05, No Iterations 2
time step continuity errors : sum local = 0.349802, global = 0.215351, cumulative = 6.87001
pressureControl: p max 2.49902e+07
pressureControl: p min -8.28433e+06
ExecutionTime = 2.83 s  ClockTime = 3 s

Time = 60

Courant Number mean: 20365.4 max: 1.53034e+08
smoothSolver:  Solving for Ux, Initial residual = 0.0278738, Final residual = 0.000250399, No Iterations 16
smoothSolver:  Solving for Uy, Initial residual = 0.0287858, Final residual = 0.000255136, No Iterations 16
smoothSolver:  Solving for Uz, Initial residual = 0.0418911, Final residual = 0.000383287, No Iterations 14
smoothSolver:  Solving for h, Initial residual = 0.00927112, Final residual = 8.42674e-05, No Iterations 16
GAMG:  Solving for p, Initial residual = 0.115003, Final residual = 0.000486975, No Iterations 3
GAMG:  Solving for p, Initial residual = 0.0271389, Final residual = 0.000169417, No Iterations 2
GAMG:  Solving for p, Initial residual = 0.0113993, Final residual = 7.92278e-05, No Iterations 2
time step continuity errors : sum local = 0.473254, global = 0.257177, cumulative = 7.12719
pressureControl: p max 2.21037e+07
pressureControl: p min -9.25462e+06
ExecutionTime = 2.87 s  ClockTime = 3 s

Time = 61

Courant Number mean: 20581.3 max: 1.899e+08
smoothSolver:  Solving for Ux, Initial residual = 0.0282518, Final residual = 0.000250896, No Iterations 16
smoothSolver:  Solving for Uy, Initial residual = 0.0288929, Final residual = 0.000257096, No Iterations 16
smoothSolver:  Solving for Uz, Initial residual = 0.0431303, Final residual = 0.000366965, No Iterations 14
smoothSolver:  Solving for h, Initial residual = 0.0088729, Final residual = 8.37723e-05, No Iterations 16
GAMG:  Solving for p, Initial residual = 0.128212, Final residual = 0.000401055, No Iterations 3
GAMG:  Solving for p, Initial residual = 0.0341812, Final residual = 0.000133263, No Iterations 2
GAMG:  Solving for p, Initial residual = 0.0128316, Final residual = 7.5876e-05, No Iterations 2
time step continuity errors : sum local = 0.475525, global = 0.258033, cumulative = 7.38522
pressureControl: p max 2.65162e+07
pressureControl: p min -9.43121e+06
ExecutionTime = 2.92 s  ClockTime = 3 s

Time = 62

Courant Number mean: 20805.1 max: 2.34021e+08
smoothSolver:  Solving for Ux, Initial residual = 0.0273779, Final residual = 0.000247639, No Iterations 16
smoothSolver:  Solving for Uy, Initial residual = 0.0281321, Final residual = 0.000252065, No Iterations 16
smoothSolver:  Solving for Uz, Initial residual = 0.0433909, Final residual = 0.000379196, No Iterations 14
smoothSolver:  Solving for h, Initial residual = 0.00871933, Final residual = 8.4116e-05, No Iterations 16
GAMG:  Solving for p, Initial residual = 0.11422, Final residual = 0.000468108, No Iterations 3
GAMG:  Solving for p, Initial residual = 0.0279205, Final residual = 0.000165058, No Iterations 2
GAMG:  Solving for p, Initial residual = 0.0122879, Final residual = 8.36286e-05, No Iterations 2
time step continuity errors : sum local = 0.645903, global = 0.309123, cumulative = 7.69434
pressureControl: p max 2.23168e+07
pressureControl: p min -1.0775e+07
ExecutionTime = 2.96 s  ClockTime = 3 s

Time = 63

Courant Number mean: 21170.5 max: 2.95821e+08
smoothSolver:  Solving for Ux, Initial residual = 0.0282458, Final residual = 0.000252851, No Iterations 16
smoothSolver:  Solving for Uy, Initial residual = 0.0286138, Final residual = 0.000260197, No Iterations 16
smoothSolver:  Solving for Uz, Initial residual = 0.0464659, Final residual = 0.000404677, No Iterations 14
smoothSolver:  Solving for h, Initial residual = 0.00834216, Final residual = 8.31303e-05, No Iterations 16
GAMG:  Solving for p, Initial residual = 0.13215, Final residual = 0.00119346, No Iterations 2
GAMG:  Solving for p, Initial residual = 0.0357796, Final residual = 0.000232227, No Iterations 2
GAMG:  Solving for p, Initial residual = 0.0143727, Final residual = 9.48538e-05, No Iterations 2
time step continuity errors : sum local = 0.770634, global = 0.467718, cumulative = 8.16206
pressureControl: p max 2.71477e+07
pressureControl: p min -1.08023e+07
ExecutionTime = 3 s  ClockTime = 3 s

Time = 64

Courant Number mean: 21525.1 max: 3.64405e+08
smoothSolver:  Solving for Ux, Initial residual = 0.026993, Final residual = 0.000248037, No Iterations 16
smoothSolver:  Solving for Uy, Initial residual = 0.0274894, Final residual = 0.000252914, No Iterations 16
smoothSolver:  Solving for Uz, Initial residual = 0.0467318, Final residual = 0.000423214, No Iterations 14
smoothSolver:  Solving for h, Initial residual = 0.00833981, Final residual = 1.63069e-05, No Iterations 18
GAMG:  Solving for p, Initial residual = 0.117155, Final residual = 0.00041556, No Iterations 3
GAMG:  Solving for p, Initial residual = 0.0291253, Final residual = 0.000152371, No Iterations 2
GAMG:  Solving for p, Initial residual = 0.0133718, Final residual = 8.32983e-05, No Iterations 2
time step continuity errors : sum local = 0.853718, global = 0.403108, cumulative = 8.56517
pressureControl: p max 2.27228e+07
pressureControl: p min -1.20062e+07
ExecutionTime = 3.05 s  ClockTime = 4 s

Time = 65

Courant Number mean: 22101.4 max: 4.60932e+08
smoothSolver:  Solving for Ux, Initial residual = 0.0280032, Final residual = 0.000254108, No Iterations 16
smoothSolver:  Solving for Uy, Initial residual = 0.0278995, Final residual = 0.000262075, No Iterations 16
smoothSolver:  Solving for Uz, Initial residual = 0.0512011, Final residual = 0.000486811, No Iterations 14
smoothSolver:  Solving for h, Initial residual = 0.00785882, Final residual = 1.60061e-05, No Iterations 18
GAMG:  Solving for p, Initial residual = 0.141873, Final residual = 0.00109222, No Iterations 2
GAMG:  Solving for p, Initial residual = 0.0366764, Final residual = 0.000212624, No Iterations 2
GAMG:  Solving for p, Initial residual = 0.0148468, Final residual = 9.26162e-05, No Iterations 2
time step continuity errors : sum local = 1.00241, global = 0.584875, cumulative = 9.15005
pressureControl: p max 2.7005e+07
pressureControl: p min -1.1968e+07
ExecutionTime = 3.1 s  ClockTime = 4 s

Time = 66

Courant Number mean: 22660.4 max: 5.67309e+08
smoothSolver:  Solving for Ux, Initial residual = 0.0267217, Final residual = 0.000246878, No Iterations 16
smoothSolver:  Solving for Uy, Initial residual = 0.0267862, Final residual = 0.000253589, No Iterations 16
smoothSolver:  Solving for Uz, Initial residual = 0.0530523, Final residual = 0.000521686, No Iterations 14
smoothSolver:  Solving for h, Initial residual = 0.00787114, Final residual = 1.59612e-05, No Iterations 18
GAMG:  Solving for p, Initial residual = 0.134658, Final residual = 0.00038089, No Iterations 3
GAMG:  Solving for p, Initial residual = 0.0323116, Final residual = 0.000148163, No Iterations 2
GAMG:  Solving for p, Initial residual = 0.0151197, Final residual = 9.15658e-05, No Iterations 2
time step continuity errors : sum local = 1.21653, global = 0.524241, cumulative = 9.67429
pressureControl: p max 2.35223e+07
pressureControl: p min -1.3131e+07
ExecutionTime = 3.15 s  ClockTime = 4 s

Time = 67

Courant Number mean: 23534 max: 7.13124e+08
smoothSolver:  Solving for Ux, Initial residual = 0.0275978, Final residual = 0.00025292, No Iterations 16
smoothSolver:  Solving for Uy, Initial residual = 0.0269781, Final residual = 0.000261624, No Iterations 16
smoothSolver:  Solving for Uz, Initial residual = 0.0586744, Final residual = 0.00049855, No Iterations 15
smoothSolver:  Solving for h, Initial residual = 0.00738776, Final residual = 1.56166e-05, No Iterations 18
GAMG:  Solving for p, Initial residual = 0.161195, Final residual = 0.00110626, No Iterations 2
GAMG:  Solving for p, Initial residual = 0.0382686, Final residual = 0.000198545, No Iterations 2
GAMG:  Solving for p, Initial residual = 0.0155489, Final residual = 9.33329e-05, No Iterations 2
time step continuity errors : sum local = 1.36364, global = 0.721954, cumulative = 10.3962
pressureControl: p max 2.68098e+07
pressureControl: p min -1.33057e+07
ExecutionTime = 3.19 s  ClockTime = 4 s

Time = 68

Courant Number mean: 24428.7 max: 8.81108e+08
smoothSolver:  Solving for Ux, Initial residual = 0.0264165, Final residual = 0.000245169, No Iterations 16
smoothSolver:  Solving for Uy, Initial residual = 0.0258652, Final residual = 0.000253049, No Iterations 16
smoothSolver:  Solving for Uz, Initial residual = 0.0624224, Final residual = 0.000546927, No Iterations 15
smoothSolver:  Solving for h, Initial residual = 0.00740104, Final residual = 1.55392e-05, No Iterations 18
GAMG:  Solving for p, Initial residual = 0.159778, Final residual = 0.00154625, No Iterations 2
GAMG:  Solving for p, Initial residual = 0.0354879, Final residual = 0.000269856, No Iterations 2
GAMG:  Solving for p, Initial residual = 0.0168833, Final residual = 0.000113449, No Iterations 2
time step continuity errors : sum local = 2.00699, global = 0.926669, cumulative = 11.3229
pressureControl: p max 2.45905e+07
pressureControl: p min -1.42649e+07
ExecutionTime = 3.23 s  ClockTime = 4 s

writeObjects writeThermophysicalProperties write:
    writing object thermo:alpha
    writing object thermo:mu

Time = 69

Courant Number mean: 25739.3 max: 1.09702e+09
smoothSolver:  Solving for Ux, Initial residual = 0.0268726, Final residual = 0.00024963, No Iterations 16
smoothSolver:  Solving for Uy, Initial residual = 0.025464, Final residual = 0.000207602, No Iterations 17
smoothSolver:  Solving for Uz, Initial residual = 0.0651813, Final residual = 0.000611992, No Iterations 15
smoothSolver:  Solving for h, Initial residual = 0.00707241, Final residual = 1.52302e-05, No Iterations 18
GAMG:  Solving for p, Initial residual = 0.184868, Final residual = 0.00117616, No Iterations 2
GAMG:  Solving for p, Initial residual = 0.041175, Final residual = 0.000188538, No Iterations 2
GAMG:  Solving for p, Initial residual = 0.0172828, Final residual = 9.59992e-05, No Iterations 2
time step continuity errors : sum local = 1.92795, global = 0.920997, cumulative = 12.2439
pressureControl: p max 2.71611e+07
pressureControl: p min -1.49864e+07
ExecutionTime = 3.28 s  ClockTime = 4 s

Time = 70

Courant Number mean: 27182.9 max: 1.36354e+09
smoothSolver:  Solving for Ux, Initial residual = 0.0258914, Final residual = 0.000239952, No Iterations 16
smoothSolver:  Solving for Uy, Initial residual = 0.0244845, Final residual = 0.000198496, No Iterations 17
smoothSolver:  Solving for Uz, Initial residual = 0.048789, Final residual = 0.000462885, No Iterations 15
smoothSolver:  Solving for h, Initial residual = 0.00711732, Final residual = 1.52328e-05, No Iterations 18
GAMG:  Solving for p, Initial residual = 0.18735, Final residual = 0.00160287, No Iterations 2
GAMG:  Solving for p, Initial residual = 0.0394966, Final residual = 0.000258197, No Iterations 2
GAMG:  Solving for p, Initial residual = 0.0187796, Final residual = 0.000117708, No Iterations 2
time step continuity errors : sum local = 2.83883, global = 1.23937, cumulative = 13.4833
pressureControl: p max 2.55569e+07
pressureControl: p min -1.57381e+07
ExecutionTime = 3.33 s  ClockTime = 4 s

Time = 71

Courant Number mean: 29140.9 max: 1.68436e+09
smoothSolver:  Solving for Ux, Initial residual = 0.0258726, Final residual = 0.000241297, No Iterations 16
smoothSolver:  Solving for Uy, Initial residual = 0.0234629, Final residual = 0.000195142, No Iterations 17
smoothSolver:  Solving for Uz, Initial residual = 0.0393784, Final residual = 0.000323989, No Iterations 16
smoothSolver:  Solving for h, Initial residual = 0.00710928, Final residual = 1.51956e-05, No Iterations 18
GAMG:  Solving for p, Initial residual = 0.212963, Final residual = 0.00131531, No Iterations 2
GAMG:  Solving for p, Initial residual = 0.0453608, Final residual = 0.000181368, No Iterations 2
GAMG:  Solving for p, Initial residual = 0.0195069, Final residual = 0.000102919, No Iterations 2
time step continuity errors : sum local = 2.84544, global = 1.16985, cumulative = 14.6531
pressureControl: p max 2.78685e+07
pressureControl: p min -1.67695e+07
ExecutionTime = 3.37 s  ClockTime = 4 s

Time = 72

Courant Number mean: 31431 max: 2.10263e+09
smoothSolver:  Solving for Ux, Initial residual = 0.0246484, Final residual = 0.000228121, No Iterations 16
smoothSolver:  Solving for Uy, Initial residual = 0.0222071, Final residual = 0.00018271, No Iterations 17
smoothSolver:  Solving for Uz, Initial residual = 0.0271175, Final residual = 0.000227097, No Iterations 16
smoothSolver:  Solving for h, Initial residual = 0.00765477, Final residual = 7.57487e-05, No Iterations 16
GAMG:  Solving for p, Initial residual = 0.219993, Final residual = 0.0017823, No Iterations 2
GAMG:  Solving for p, Initial residual = 0.0441928, Final residual = 0.000256494, No Iterations 2
GAMG:  Solving for p, Initial residual = 0.0209476, Final residual = 0.000124081, No Iterations 2
time step continuity errors : sum local = 4.09186, global = 1.62158, cumulative = 16.2747
pressureControl: p max 2.68769e+07
pressureControl: p min -1.73662e+07
ExecutionTime = 3.42 s  ClockTime = 4 s

Time = 73

Courant Number mean: 34402.1 max: 2.58474e+09
smoothSolver:  Solving for Ux, Initial residual = 0.0239318, Final residual = 0.000223102, No Iterations 16
smoothSolver:  Solving for Uy, Initial residual = 0.020276, Final residual = 0.000171265, No Iterations 17
smoothSolver:  Solving for Uz, Initial residual = 0.022836, Final residual = 0.000202797, No Iterations 16
smoothSolver:  Solving for h, Initial residual = 0.00857882, Final residual = 7.60078e-05, No Iterations 16
GAMG:  Solving for p, Initial residual = 0.241671, Final residual = 0.00147133, No Iterations 2
GAMG:  Solving for p, Initial residual = 0.0501931, Final residual = 0.000178472, No Iterations 2
GAMG:  Solving for p, Initial residual = 0.0221122, Final residual = 0.00011457, No Iterations 2
time step continuity errors : sum local = 4.35601, global = 1.49918, cumulative = 17.7739
pressureControl: p max 2.86522e+07
pressureControl: p min -1.86955e+07
ExecutionTime = 3.46 s  ClockTime = 4 s

Time = 74

Courant Number mean: 37963.9 max: 3.22774e+09
smoothSolver:  Solving for Ux, Initial residual = 0.021666, Final residual = 0.000199136, No Iterations 16
smoothSolver:  Solving for Uy, Initial residual = 0.0183885, Final residual = 0.000152395, No Iterations 17
smoothSolver:  Solving for Uz, Initial residual = 0.0168103, Final residual = 0.000152843, No Iterations 16
smoothSolver:  Solving for h, Initial residual = 0.010776, Final residual = 7.69114e-05, No Iterations 16
GAMG:  Solving for p, Initial residual = 0.240255, Final residual = 0.00190082, No Iterations 2
GAMG:  Solving for p, Initial residual = 0.0473361, Final residual = 0.000255025, No Iterations 2
GAMG:  Solving for p, Initial residual = 0.0224258, Final residual = 0.000128053, No Iterations 2
time step continuity errors : sum local = 5.99816, global = 2.09228, cumulative = 19.8662
pressureControl: p max 2.83973e+07
pressureControl: p min -1.91543e+07
ExecutionTime = 3.5 s  ClockTime = 4 s

Time = 75

Courant Number mean: 42410.7 max: 3.94684e+09
smoothSolver:  Solving for Ux, Initial residual = 0.0197369, Final residual = 0.000182882, No Iterations 16
smoothSolver:  Solving for Uy, Initial residual = 0.0158742, Final residual = 0.000135372, No Iterations 17
smoothSolver:  Solving for Uz, Initial residual = 0.0145728, Final residual = 0.000139969, No Iterations 16
smoothSolver:  Solving for h, Initial residual = 0.0141951, Final residual = 8.2775e-05, No Iterations 16
GAMG:  Solving for p, Initial residual = 0.252756, Final residual = 0.00150912, No Iterations 2
GAMG:  Solving for p, Initial residual = 0.0507047, Final residual = 0.000160982, No Iterations 2
GAMG:  Solving for p, Initial residual = 0.0228857, Final residual = 0.000116658, No Iterations 2
time step continuity errors : sum local = 6.57673, global = 1.93549, cumulative = 21.8017
pressureControl: p max 2.93642e+07
pressureControl: p min -2.07351e+07
ExecutionTime = 3.55 s  ClockTime = 4 s

Time = 76

Courant Number mean: 47738.6 max: 4.89982e+09
smoothSolver:  Solving for Ux, Initial residual = 0.0161503, Final residual = 0.000146447, No Iterations 16
smoothSolver:  Solving for Uy, Initial residual = 0.0139846, Final residual = 0.000115888, No Iterations 17
smoothSolver:  Solving for Uz, Initial residual = 0.0113012, Final residual = 0.00011082, No Iterations 16
smoothSolver:  Solving for h, Initial residual = 0.0203873, Final residual = 8.78899e-05, No Iterations 16
GAMG:  Solving for p, Initial residual = 0.252783, Final residual = 0.00192521, No Iterations 2
GAMG:  Solving for p, Initial residual = 0.0476717, Final residual = 0.000246098, No Iterations 2
GAMG:  Solving for p, Initial residual = 0.0228078, Final residual = 0.000128404, No Iterations 2
time step continuity errors : sum local = 8.89437, global = 2.66646, cumulative = 24.4681
pressureControl: p max 2.98428e+07
pressureControl: p min -2.10072e+07
ExecutionTime = 3.6 s  ClockTime = 4 s

Time = 77

Courant Number mean: 54083.8 max: 5.91921e+09
smoothSolver:  Solving for Ux, Initial residual = 0.0141136, Final residual = 0.000129265, No Iterations 16
smoothSolver:  Solving for Uy, Initial residual = 0.0118979, Final residual = 0.000101535, No Iterations 17
smoothSolver:  Solving for Uz, Initial residual = 0.0100114, Final residual = 8.35242e-05, No Iterations 17
smoothSolver:  Solving for h, Initial residual = 0.0282402, Final residual = 0.000104754, No Iterations 16
GAMG:  Solving for p, Initial residual = 0.26512, Final residual = 0.00152076, No Iterations 2
GAMG:  Solving for p, Initial residual = 0.0500581, Final residual = 0.00014274, No Iterations 2
GAMG:  Solving for p, Initial residual = 0.0229341, Final residual = 0.000113601, No Iterations 2
time step continuity errors : sum local = 9.35036, global = 2.40787, cumulative = 26.876
pressureControl: p max 3.06317e+07
pressureControl: p min -2.2737e+07
ExecutionTime = 3.64 s  ClockTime = 4 s

Time = 78

Courant Number mean: 61514.3 max: 7.23677e+09
smoothSolver:  Solving for Ux, Initial residual = 0.0113498, Final residual = 0.000100691, No Iterations 16
smoothSolver:  Solving for Uy, Initial residual = 0.0105067, Final residual = 8.58498e-05, No Iterations 17
smoothSolver:  Solving for Uz, Initial residual = 0.00814467, Final residual = 6.78713e-05, No Iterations 17
smoothSolver:  Solving for h, Initial residual = 0.0392082, Final residual = 0.000303154, No Iterations 14
GAMG:  Solving for p, Initial residual = 0.26956, Final residual = 0.00201367, No Iterations 2
GAMG:  Solving for p, Initial residual = 0.0486387, Final residual = 0.00024622, No Iterations 2
GAMG:  Solving for p, Initial residual = 0.0240122, Final residual = 0.000128504, No Iterations 2
time step continuity errors : sum local = 12.4346, global = 3.30371, cumulative = 30.1797
pressureControl: p max 3.08995e+07
pressureControl: p min -2.26097e+07
ExecutionTime = 3.69 s  ClockTime = 4 s

Time = 79

Courant Number mean: 69757.4 max: 8.53118e+09
smoothSolver:  Solving for Ux, Initial residual = 0.00998559, Final residual = 8.91807e-05, No Iterations 16
smoothSolver:  Solving for Uy, Initial residual = 0.00897698, Final residual = 7.54453e-05, No Iterations 17
smoothSolver:  Solving for Uz, Initial residual = 0.0074222, Final residual = 6.33512e-05, No Iterations 17
smoothSolver:  Solving for h, Initial residual = 0.0482781, Final residual = 0.000359101, No Iterations 14
GAMG:  Solving for p, Initial residual = 0.285606, Final residual = 0.00156282, No Iterations 2
GAMG:  Solving for p, Initial residual = 0.052137, Final residual = 0.000126177, No Iterations 2
GAMG:  Solving for p, Initial residual = 0.023582, Final residual = 0.000108629, No Iterations 2
time step continuity errors : sum local = 11.9557, global = 2.8361, cumulative = 33.0158
pressureControl: p max 3.12106e+07
pressureControl: p min -2.43199e+07
ExecutionTime = 3.73 s  ClockTime = 4 s

Time = 80

Courant Number mean: 78694.5 max: 1.01147e+10
smoothSolver:  Solving for Ux, Initial residual = 0.00805492, Final residual = 6.86225e-05, No Iterations 16
smoothSolver:  Solving for Uy, Initial residual = 0.00804571, Final residual = 7.82046e-05, No Iterations 16
smoothSolver:  Solving for Uz, Initial residual = 0.00635209, Final residual = 5.19912e-05, No Iterations 17
smoothSolver:  Solving for h, Initial residual = 0.0555232, Final residual = 0.000309598, No Iterations 14
GAMG:  Solving for p, Initial residual = 0.289095, Final residual = 0.00215551, No Iterations 2
GAMG:  Solving for p, Initial residual = 0.050151, Final residual = 0.000262644, No Iterations 2
GAMG:  Solving for p, Initial residual = 0.0256356, Final residual = 0.000124683, No Iterations 2
time step continuity errors : sum local = 15.5619, global = 3.86751, cumulative = 36.8833
pressureControl: p max 3.13045e+07
pressureControl: p min -2.34906e+07
ExecutionTime = 3.78 s  ClockTime = 4 s

Time = 81

Courant Number mean: 87647.1 max: 1.14362e+10
smoothSolver:  Solving for Ux, Initial residual = 0.00720555, Final residual = 6.21403e-05, No Iterations 16
smoothSolver:  Solving for Uy, Initial residual = 0.00698853, Final residual = 5.71502e-05, No Iterations 17
[...]
GAMG:  Solving for p, Initial residual = 0.0291905, Final residual = 0.000111154, No Iterations 2
time step continuity errors : sum local = 26.6181, global = 4.0202, cumulative = 1555.65
pressureControl: p max 2.86584e+07
pressureControl: p min -2.11715e+07
ExecutionTime = 18.51 s  ClockTime = 19 s

Time = 405

Courant Number mean: 130636 max: 1.59519e+10
smoothSolver:  Solving for Ux, Initial residual = 0.00542691, Final residual = 4.36256e-05, No Iterations 13
smoothSolver:  Solving for Uy, Initial residual = 0.00896936, Final residual = 8.15276e-05, No Iterations 13
smoothSolver:  Solving for Uz, Initial residual = 0.0112977, Final residual = 0.000110156, No Iterations 11
smoothSolver:  Solving for h, Initial residual = 0.0678159, Final residual = 0.00066007, No Iterations 12
GAMG:  Solving for p, Initial residual = 0.273444, Final residual = 0.00128153, No Iterations 2
GAMG:  Solving for p, Initial residual = 0.0756175, Final residual = 0.000146653, No Iterations 2
GAMG:  Solving for p, Initial residual = 0.0352283, Final residual = 0.000169656, No Iterations 2
time step continuity errors : sum local = 38.0739, global = 5.24651, cumulative = 1560.9
pressureControl: p max 3.65922e+07
pressureControl: p min -2.1875e+07
ExecutionTime = 18.56 s  ClockTime = 19 s

Time = 406

Courant Number mean: 132511 max: 1.68536e+10
smoothSolver:  Solving for Ux, Initial residual = 0.00484269, Final residual = 4.1575e-05, No Iterations 13
smoothSolver:  Solving for Uy, Initial residual = 0.00877729, Final residual = 8.73659e-05, No Iterations 13
smoothSolver:  Solving for Uz, Initial residual = 0.00803699, Final residual = 7.5859e-05, No Iterations 12
smoothSolver:  Solving for h, Initial residual = 0.0676349, Final residual = 0.000570986, No Iterations 12
GAMG:  Solving for p, Initial residual = 0.24745, Final residual = 0.00166404, No Iterations 2
GAMG:  Solving for p, Initial residual = 0.0556536, Final residual = 0.000244391, No Iterations 2
GAMG:  Solving for p, Initial residual = 0.0286747, Final residual = 0.000104958, No Iterations 2
time step continuity errors : sum local = 25.2529, global = 4.53577, cumulative = 1565.43
pressureControl: p max 2.87675e+07
pressureControl: p min -2.11879e+07
ExecutionTime = 18.6 s  ClockTime = 19 s

Time = 407

Courant Number mean: 130990 max: 1.59565e+10
smoothSolver:  Solving for Ux, Initial residual = 0.00546042, Final residual = 5.3991e-05, No Iterations 12
smoothSolver:  Solving for Uy, Initial residual = 0.00896038, Final residual = 8.10916e-05, No Iterations 13
smoothSolver:  Solving for Uz, Initial residual = 0.0110357, Final residual = 0.000107108, No Iterations 11
smoothSolver:  Solving for h, Initial residual = 0.067566, Final residual = 0.000664484, No Iterations 12
GAMG:  Solving for p, Initial residual = 0.271324, Final residual = 0.00128896, No Iterations 2
GAMG:  Solving for p, Initial residual = 0.0751506, Final residual = 0.000147462, No Iterations 2
GAMG:  Solving for p, Initial residual = 0.0352423, Final residual = 0.000170381, No Iterations 2
time step continuity errors : sum local = 38.5993, global = 5.43744, cumulative = 1570.87
pressureControl: p max 3.66792e+07
pressureControl: p min -2.20804e+07
ExecutionTime = 18.65 s  ClockTime = 19 s

Time = 408

Courant Number mean: 132921 max: 1.68529e+10
smoothSolver:  Solving for Ux, Initial residual = 0.00484837, Final residual = 4.15992e-05, No Iterations 13
smoothSolver:  Solving for Uy, Initial residual = 0.00873181, Final residual = 8.69604e-05, No Iterations 13
smoothSolver:  Solving for Uz, Initial residual = 0.00803777, Final residual = 7.53146e-05, No Iterations 12
smoothSolver:  Solving for h, Initial residual = 0.0668098, Final residual = 0.000566277, No Iterations 12
GAMG:  Solving for p, Initial residual = 0.246521, Final residual = 0.0017217, No Iterations 2
GAMG:  Solving for p, Initial residual = 0.0561915, Final residual = 0.000249962, No Iterations 2
GAMG:  Solving for p, Initial residual = 0.0292754, Final residual = 0.000109271, No Iterations 2
time step continuity errors : sum local = 26.5308, global = 4.63139, cumulative = 1575.5
pressureControl: p max 2.87372e+07
pressureControl: p min -2.11295e+07
ExecutionTime = 18.69 s  ClockTime = 19 s

writeObjects writeThermophysicalProperties write:
    writing object thermo:alpha
    writing object thermo:mu

Time = 409

Courant Number mean: 131505 max: 1.5954e+10
smoothSolver:  Solving for Ux, Initial residual = 0.00544734, Final residual = 5.42126e-05, No Iterations 12
smoothSolver:  Solving for Uy, Initial residual = 0.00881256, Final residual = 7.96243e-05, No Iterations 13
smoothSolver:  Solving for Uz, Initial residual = 0.0115741, Final residual = 0.000111466, No Iterations 11
smoothSolver:  Solving for h, Initial residual = 0.0679414, Final residual = 0.000663042, No Iterations 12
GAMG:  Solving for p, Initial residual = 0.270583, Final residual = 0.00126956, No Iterations 2
GAMG:  Solving for p, Initial residual = 0.075556, Final residual = 0.000145589, No Iterations 2
GAMG:  Solving for p, Initial residual = 0.0352923, Final residual = 0.000169161, No Iterations 2
time step continuity errors : sum local = 38.5849, global = 5.4299, cumulative = 1580.93
pressureControl: p max 3.65486e+07
pressureControl: p min -2.19469e+07
ExecutionTime = 18.74 s  ClockTime = 19 s

Time = 410

Courant Number mean: 133403 max: 1.68619e+10
smoothSolver:  Solving for Ux, Initial residual = 0.00486695, Final residual = 4.19822e-05, No Iterations 13
smoothSolver:  Solving for Uy, Initial residual = 0.00865661, Final residual = 8.58928e-05, No Iterations 13
smoothSolver:  Solving for Uz, Initial residual = 0.00816474, Final residual = 7.6837e-05, No Iterations 12
smoothSolver:  Solving for h, Initial residual = 0.0678975, Final residual = 0.000574925, No Iterations 12
GAMG:  Solving for p, Initial residual = 0.24551, Final residual = 0.00164105, No Iterations 2
GAMG:  Solving for p, Initial residual = 0.0558108, Final residual = 0.000236787, No Iterations 2
GAMG:  Solving for p, Initial residual = 0.0287375, Final residual = 0.000105699, No Iterations 2
time step continuity errors : sum local = 25.7883, global = 4.51267, cumulative = 1585.44
pressureControl: p max 2.8741e+07
pressureControl: p min -2.1225e+07
ExecutionTime = 18.78 s  ClockTime = 19 s

Time = 411

Courant Number mean: 131846 max: 1.59571e+10
smoothSolver:  Solving for Ux, Initial residual = 0.00549148, Final residual = 5.48143e-05, No Iterations 12
smoothSolver:  Solving for Uy, Initial residual = 0.00884648, Final residual = 8.00256e-05, No Iterations 13
smoothSolver:  Solving for Uz, Initial residual = 0.011312, Final residual = 0.00010999, No Iterations 11
smoothSolver:  Solving for h, Initial residual = 0.0675158, Final residual = 0.000663549, No Iterations 12
GAMG:  Solving for p, Initial residual = 0.26908, Final residual = 0.00128001, No Iterations 2
GAMG:  Solving for p, Initial residual = 0.0752159, Final residual = 0.00014835, No Iterations 2
GAMG:  Solving for p, Initial residual = 0.0353455, Final residual = 0.000171343, No Iterations 2
time step continuity errors : sum local = 39.3981, global = 5.43183, cumulative = 1590.88
pressureControl: p max 3.67184e+07
pressureControl: p min -2.20717e+07
ExecutionTime = 18.83 s  ClockTime = 19 s

Time = 412

Courant Number mean: 133762 max: 1.68508e+10
smoothSolver:  Solving for Ux, Initial residual = 0.00486255, Final residual = 4.20129e-05, No Iterations 13
smoothSolver:  Solving for Uy, Initial residual = 0.00859931, Final residual = 8.5474e-05, No Iterations 13
smoothSolver:  Solving for Uz, Initial residual = 0.00810812, Final residual = 7.61977e-05, No Iterations 12
smoothSolver:  Solving for h, Initial residual = 0.0664625, Final residual = 0.000564936, No Iterations 12
GAMG:  Solving for p, Initial residual = 0.244734, Final residual = 0.0016994, No Iterations 2
GAMG:  Solving for p, Initial residual = 0.0563417, Final residual = 0.000247013, No Iterations 2
GAMG:  Solving for p, Initial residual = 0.0293347, Final residual = 0.000106971, No Iterations 2
time step continuity errors : sum local = 26.3132, global = 5.19648, cumulative = 1596.07
pressureControl: p max 2.88125e+07
pressureControl: p min -2.10323e+07
ExecutionTime = 18.88 s  ClockTime = 19 s

Time = 413

Courant Number mean: 132337 max: 1.5952e+10
smoothSolver:  Solving for Ux, Initial residual = 0.00549601, Final residual = 5.34292e-05, No Iterations 12
smoothSolver:  Solving for Uy, Initial residual = 0.00873796, Final residual = 7.82886e-05, No Iterations 13
smoothSolver:  Solving for Uz, Initial residual = 0.0119391, Final residual = 0.000114394, No Iterations 11
smoothSolver:  Solving for h, Initial residual = 0.0679799, Final residual = 0.000666344, No Iterations 12
GAMG:  Solving for p, Initial residual = 0.268032, Final residual = 0.00125881, No Iterations 2
GAMG:  Solving for p, Initial residual = 0.0754594, Final residual = 0.000144096, No Iterations 2
GAMG:  Solving for p, Initial residual = 0.0353218, Final residual = 0.000168163, No Iterations 2
time step continuity errors : sum local = 38.9551, global = 5.60355, cumulative = 1601.68
pressureControl: p max 3.6496e+07
pressureControl: p min -2.19961e+07
ExecutionTime = 18.92 s  ClockTime = 19 s

Time = 414

Courant Number mean: 134286 max: 1.6867e+10
smoothSolver:  Solving for Ux, Initial residual = 0.00490567, Final residual = 4.16712e-05, No Iterations 13
smoothSolver:  Solving for Uy, Initial residual = 0.00856877, Final residual = 8.37961e-05, No Iterations 13
smoothSolver:  Solving for Uz, Initial residual = 0.00830265, Final residual = 7.65168e-05, No Iterations 12
smoothSolver:  Solving for h, Initial residual = 0.0679274, Final residual = 0.000575247, No Iterations 12
GAMG:  Solving for p, Initial residual = 0.243562, Final residual = 0.00162558, No Iterations 2
GAMG:  Solving for p, Initial residual = 0.0560282, Final residual = 0.000234896, No Iterations 2
GAMG:  Solving for p, Initial residual = 0.0288056, Final residual = 0.000103181, No Iterations 2
time step continuity errors : sum local = 25.5221, global = 5.10191, cumulative = 1606.78
pressureControl: p max 2.88047e+07
pressureControl: p min -2.11811e+07
ExecutionTime = 18.97 s  ClockTime = 19 s

Time = 415

Courant Number mean: 132776 max: 1.59634e+10
smoothSolver:  Solving for Ux, Initial residual = 0.00552617, Final residual = 5.40892e-05, No Iterations 12
smoothSolver:  Solving for Uy, Initial residual = 0.00874772, Final residual = 7.83592e-05, No Iterations 13
smoothSolver:  Solving for Uz, Initial residual = 0.0116112, Final residual = 0.00011224, No Iterations 11
smoothSolver:  Solving for h, Initial residual = 0.0674958, Final residual = 0.000663399, No Iterations 12
GAMG:  Solving for p, Initial residual = 0.266508, Final residual = 0.00126559, No Iterations 2
GAMG:  Solving for p, Initial residual = 0.0750435, Final residual = 0.000147041, No Iterations 2
GAMG:  Solving for p, Initial residual = 0.0353396, Final residual = 0.000170371, No Iterations 2
time step continuity errors : sum local = 39.8275, global = 5.62879, cumulative = 1612.41
pressureControl: p max 3.66394e+07
pressureControl: p min -2.21352e+07
ExecutionTime = 19.01 s  ClockTime = 19 s

Time = 416

Courant Number mean: 134702 max: 1.68611e+10
smoothSolver:  Solving for Ux, Initial residual = 0.00489696, Final residual = 4.18159e-05, No Iterations 13
smoothSolver:  Solving for Uy, Initial residual = 0.008525, Final residual = 8.34645e-05, No Iterations 13
smoothSolver:  Solving for Uz, Initial residual = 0.00827037, Final residual = 7.60376e-05, No Iterations 12
smoothSolver:  Solving for h, Initial residual = 0.0668162, Final residual = 0.000568659, No Iterations 12
GAMG:  Solving for p, Initial residual = 0.242651, Final residual = 0.00167735, No Iterations 2
GAMG:  Solving for p, Initial residual = 0.0566081, Final residual = 0.000245024, No Iterations 2
GAMG:  Solving for p, Initial residual = 0.0293922, Final residual = 0.000107352, No Iterations 2
time step continuity errors : sum local = 26.7773, global = 5.18208, cumulative = 1617.59
pressureControl: p max 2.87979e+07
pressureControl: p min -2.10773e+07
ExecutionTime = 19.06 s  ClockTime = 20 s

Time = 417

Courant Number mean: 133249 max: 1.59546e+10
smoothSolver:  Solving for Ux, Initial residual = 0.00553339, Final residual = 5.4366e-05, No Iterations 12
smoothSolver:  Solving for Uy, Initial residual = 0.00867132, Final residual = 7.75166e-05, No Iterations 13
smoothSolver:  Solving for Uz, Initial residual = 0.01228, Final residual = 0.000117848, No Iterations 11
smoothSolver:  Solving for h, Initial residual = 0.0679424, Final residual = 0.000662998, No Iterations 12
GAMG:  Solving for p, Initial residual = 0.265984, Final residual = 0.00124727, No Iterations 2
GAMG:  Solving for p, Initial residual = 0.0753983, Final residual = 0.000145078, No Iterations 2
GAMG:  Solving for p, Initial residual = 0.0353759, Final residual = 0.00016882, No Iterations 2
time step continuity errors : sum local = 39.7136, global = 5.63167, cumulative = 1623.22
pressureControl: p max 3.65178e+07
pressureControl: p min -2.19989e+07
ExecutionTime = 19.1 s  ClockTime = 20 s

Time = 418

Courant Number mean: 135177 max: 1.68642e+10
smoothSolver:  Solving for Ux, Initial residual = 0.00492512, Final residual = 4.16854e-05, No Iterations 13
smoothSolver:  Solving for Uy, Initial residual = 0.00847703, Final residual = 8.22153e-05, No Iterations 13
smoothSolver:  Solving for Uz, Initial residual = 0.00838995, Final residual = 7.64765e-05, No Iterations 12
smoothSolver:  Solving for h, Initial residual = 0.0678355, Final residual = 0.000576372, No Iterations 12
GAMG:  Solving for p, Initial residual = 0.24157, Final residual = 0.00159806, No Iterations 2
GAMG:  Solving for p, Initial residual = 0.0562634, Final residual = 0.000232154, No Iterations 2
GAMG:  Solving for p, Initial residual = 0.0288581, Final residual = 0.000104085, No Iterations 2
time step continuity errors : sum local = 26.096, global = 5.0549, cumulative = 1628.28
pressureControl: p max 2.87916e+07
pressureControl: p min -2.11787e+07
ExecutionTime = 19.15 s  ClockTime = 20 s

Time = 419

Courant Number mean: 133565 max: 1.59535e+10
smoothSolver:  Solving for Ux, Initial residual = 0.00557619, Final residual = 5.48504e-05, No Iterations 12
smoothSolver:  Solving for Uy, Initial residual = 0.00871664, Final residual = 7.77655e-05, No Iterations 13
smoothSolver:  Solving for Uz, Initial residual = 0.0119645, Final residual = 0.000116318, No Iterations 11
smoothSolver:  Solving for h, Initial residual = 0.0674065, Final residual = 0.000662583, No Iterations 12
GAMG:  Solving for p, Initial residual = 0.264412, Final residual = 0.00125577, No Iterations 2
GAMG:  Solving for p, Initial residual = 0.0749715, Final residual = 0.000147566, No Iterations 2
GAMG:  Solving for p, Initial residual = 0.0353979, Final residual = 0.000170572, No Iterations 2
time step continuity errors : sum local = 40.4356, global = 5.63589, cumulative = 1633.91
pressureControl: p max 3.66911e+07
pressureControl: p min -2.21219e+07
ExecutionTime = 19.19 s  ClockTime = 20 s

Time = 420

Courant Number mean: 135523 max: 1.68484e+10
smoothSolver:  Solving for Ux, Initial residual = 0.00492991, Final residual = 4.16937e-05, No Iterations 13
smoothSolver:  Solving for Uy, Initial residual = 0.00844799, Final residual = 8.20154e-05, No Iterations 13
smoothSolver:  Solving for Uz, Initial residual = 0.00834544, Final residual = 7.57829e-05, No Iterations 12
smoothSolver:  Solving for h, Initial residual = 0.0662432, Final residual = 0.000564511, No Iterations 12
GAMG:  Solving for p, Initial residual = 0.240798, Final residual = 0.00165821, No Iterations 2
GAMG:  Solving for p, Initial residual = 0.0568206, Final residual = 0.000242393, No Iterations 2
GAMG:  Solving for p, Initial residual = 0.029493, Final residual = 0.000108409, No Iterations 2
time step continuity errors : sum local = 27.4184, global = 5.15749, cumulative = 1639.07
pressureControl: p max 2.87618e+07
pressureControl: p min -2.1079e+07
ExecutionTime = 19.24 s  ClockTime = 20 s

Time = 421

Courant Number mean: 134041 max: 1.59483e+10
smoothSolver:  Solving for Ux, Initial residual = 0.00557173, Final residual = 5.45683e-05, No Iterations 12
smoothSolver:  Solving for Uy, Initial residual = 0.00861576, Final residual = 7.64234e-05, No Iterations 13
smoothSolver:  Solving for Uz, Initial residual = 0.0126167, Final residual = 0.000121494, No Iterations 11
smoothSolver:  Solving for h, Initial residual = 0.0674546, Final residual = 0.000659187, No Iterations 12
GAMG:  Solving for p, Initial residual = 0.263517, Final residual = 0.00123448, No Iterations 2
GAMG:  Solving for p, Initial residual = 0.0752685, Final residual = 0.000145156, No Iterations 2
GAMG:  Solving for p, Initial residual = 0.035395, Final residual = 0.000168628, No Iterations 2
time step continuity errors : sum local = 40.2201, global = 5.64611, cumulative = 1644.72
pressureControl: p max 3.65237e+07
pressureControl: p min -2.1978e+07
ExecutionTime = 19.29 s  ClockTime = 20 s

Time = 422

Courant Number mean: 136001 max: 1.68554e+10
smoothSolver:  Solving for Ux, Initial residual = 0.00496506, Final residual = 4.16483e-05, No Iterations 13
smoothSolver:  Solving for Uy, Initial residual = 0.00840467, Final residual = 8.09928e-05, No Iterations 13
smoothSolver:  Solving for Uz, Initial residual = 0.0084792, Final residual = 7.67674e-05, No Iterations 12
smoothSolver:  Solving for h, Initial residual = 0.0672873, Final residual = 0.00057174, No Iterations 12
GAMG:  Solving for p, Initial residual = 0.239941, Final residual = 0.0015904, No Iterations 2
GAMG:  Solving for p, Initial residual = 0.0565399, Final residual = 0.000231106, No Iterations 2
GAMG:  Solving for p, Initial residual = 0.0290633, Final residual = 0.000105449, No Iterations 2
time step continuity errors : sum local = 26.8067, global = 5.06849, cumulative = 1649.78
pressureControl: p max 2.87718e+07
pressureControl: p min -2.11942e+07
ExecutionTime = 19.33 s  ClockTime = 20 s

Time = 423

Courant Number mean: 134427 max: 1.59538e+10
smoothSolver:  Solving for Ux, Initial residual = 0.00559931, Final residual = 5.46203e-05, No Iterations 12
smoothSolver:  Solving for Uy, Initial residual = 0.00862821, Final residual = 7.63178e-05, No Iterations 13
smoothSolver:  Solving for Uz, Initial residual = 0.0122714, Final residual = 0.000118751, No Iterations 11
smoothSolver:  Solving for h, Initial residual = 0.0669589, Final residual = 0.000657689, No Iterations 12
GAMG:  Solving for p, Initial residual = 0.261827, Final residual = 0.00124111, No Iterations 2
GAMG:  Solving for p, Initial residual = 0.074955, Final residual = 0.000147835, No Iterations 2
GAMG:  Solving for p, Initial residual = 0.0354574, Final residual = 0.000170974, No Iterations 2
time step continuity errors : sum local = 41.1069, global = 5.67013, cumulative = 1655.45
pressureControl: p max 3.66663e+07
pressureControl: p min -2.21044e+07
ExecutionTime = 19.38 s  ClockTime = 20 s

Time = 424

Courant Number mean: 136379 max: 1.68461e+10
smoothSolver:  Solving for Ux, Initial residual = 0.00496451, Final residual = 4.18297e-05, No Iterations 13
smoothSolver:  Solving for Uy, Initial residual = 0.00837698, Final residual = 8.09519e-05, No Iterations 13
smoothSolver:  Solving for Uz, Initial residual = 0.00844548, Final residual = 7.67942e-05, No Iterations 12
smoothSolver:  Solving for h, Initial residual = 0.0661774, Final residual = 0.000564774, No Iterations 12
GAMG:  Solving for p, Initial residual = 0.239424, Final residual = 0.00164401, No Iterations 2
GAMG:  Solving for p, Initial residual = 0.0570708, Final residual = 0.000241233, No Iterations 2
GAMG:  Solving for p, Initial residual = 0.0297159, Final residual = 0.000109965, No Iterations 2
time step continuity errors : sum local = 28.177, global = 5.19836, cumulative = 1660.65
