/*---------------------------------------------------------------------------*\
  =========                 |
  \\      /  F ield         | OpenFOAM: The Open Source CFD Toolbox
   \\    /   O peration     | Website:  https://openfoam.org
    \\  /    A nd           | Version:  7
     \\/     M anipulation  |
\*---------------------------------------------------------------------------*/
Build  : 7-3bcbaf946ae9
Exec   : polymSimpleFoam
Date   : May 02 2022
Time   : 20:30:44
Host   : "anuar"
PID    : 64350
I/O    : uncollated
Case   : /home/anuar/OpenFOAM/anuar-7/run/tests/PolymerK+hPolymer/PruebaMalla2D
nProcs : 1
sigFpe : Enabling floating point exception trapping (FOAM_SIGFPE).
fileModificationChecking : Monitoring run-time modified files using timeStampMaster (fileModificationSkew 10)
allowSystemOperations : Allowing user-supplied system call operations

// * * * * * * * * * * * * * * * * * * * * * * * * * * * * * * * * * * * * * //
Create time

Create mesh for time = 0


SIMPLE: Convergence criteria found
        p: tolerance 0.0001
        U: tolerance 0.0001
        h: tolerance 0.001

Reading thermophysical properties

Selecting thermodynamics package 
{
    type            heRhoThermo;
    mixture         pureMixture;
    transport       polymerK;
    thermo          hPolymer;
    equationOfState rhoConst;
    specie          specie;
    energy          sensibleEnthalpy;
}

Reading field U

Reading/calculating face flux field phi

pressureControl
    pMax 150000
    pMin 10000

Creating turbulence model

Selecting turbulence model type laminar
Selecting laminar stress model Stokes
No MRF models present

No finite volume options present

Starting time loop

Time = 1

smoothSolver:  Solving for Uy, Initial residual = 1, Final residual = 0.0615808, No Iterations 1
smoothSolver:  Solving for Uz, Initial residual = 1, Final residual = 0.0522618, No Iterations 2
smoothSolver:  Solving for h, Initial residual = 1, Final residual = 0.0889751, No Iterations 1
GAMG:  Solving for p, Initial residual = 1, Final residual = 0.0912557, No Iterations 6
time step continuity errors : sum local = 4.45122, global = -0.398559, cumulative = -0.398559
ExecutionTime = 0.01 s  ClockTime = 0 s

Time = 2

smoothSolver:  Solving for Uy, Initial residual = 0.583845, Final residual = 0.0411432, No Iterations 2
smoothSolver:  Solving for Uz, Initial residual = 0.695663, Final residual = 0.0553378, No Iterations 2
smoothSolver:  Solving for h, Initial residual = 0.202324, Final residual = 0.00576085, No Iterations 2
GAMG:  Solving for p, Initial residual = 0.0687758, Final residual = 0.00413764, No Iterations 4
time step continuity errors : sum local = 8.69019, global = 0.532926, cumulative = 0.134368
ExecutionTime = 0.01 s  ClockTime = 0 s

Time = 3

smoothSolver:  Solving for Uy, Initial residual = 0.547666, Final residual = 0.0420352, No Iterations 2
smoothSolver:  Solving for Uz, Initial residual = 0.210883, Final residual = 0.0167067, No Iterations 2
smoothSolver:  Solving for h, Initial residual = 0.0983032, Final residual = 0.00395016, No Iterations 2
GAMG:  Solving for p, Initial residual = 0.0805629, Final residual = 0.00211161, No Iterations 6
time step continuity errors : sum local = 3.703, global = 0.327634, cumulative = 0.462001
ExecutionTime = 0.01 s  ClockTime = 0 s

Time = 4

smoothSolver:  Solving for Uy, Initial residual = 0.297628, Final residual = 0.0233955, No Iterations 2
smoothSolver:  Solving for Uz, Initial residual = 0.0379889, Final residual = 0.00259289, No Iterations 2
smoothSolver:  Solving for h, Initial residual = 0.0617471, Final residual = 0.00307122, No Iterations 2
GAMG:  Solving for p, Initial residual = 0.542494, Final residual = 0.0271675, No Iterations 4
time step continuity errors : sum local = 8.06751, global = 1.49902, cumulative = 1.96102
ExecutionTime = 0.01 s  ClockTime = 0 s

Time = 5

smoothSolver:  Solving for Uy, Initial residual = 0.104625, Final residual = 0.00696324, No Iterations 2
smoothSolver:  Solving for Uz, Initial residual = 0.132896, Final residual = 0.0104909, No Iterations 2
smoothSolver:  Solving for h, Initial residual = 0.0451225, Final residual = 0.00255455, No Iterations 2
GAMG:  Solving for p, Initial residual = 0.153825, Final residual = 0.00642261, No Iterations 4
time step continuity errors : sum local = 7.91779, global = -0.908086, cumulative = 1.05294
ExecutionTime = 0.02 s  ClockTime = 0 s

Time = 6

smoothSolver:  Solving for Uy, Initial residual = 0.27117, Final residual = 0.0206483, No Iterations 2
smoothSolver:  Solving for Uz, Initial residual = 0.155557, Final residual = 0.0122133, No Iterations 2
smoothSolver:  Solving for h, Initial residual = 0.0358807, Final residual = 0.00220357, No Iterations 2
GAMG:  Solving for p, Initial residual = 0.184011, Final residual = 0.00973124, No Iterations 4
time step continuity errors : sum local = 9.89427, global = -1.16459, cumulative = -0.111656
ExecutionTime = 0.02 s  ClockTime = 0 s

Time = 7

smoothSolver:  Solving for Uy, Initial residual = 0.380221, Final residual = 0.0295951, No Iterations 2
smoothSolver:  Solving for Uz, Initial residual = 0.0562429, Final residual = 0.00405367, No Iterations 2
smoothSolver:  Solving for h, Initial residual = 0.0301073, Final residual = 0.00195107, No Iterations 2
GAMG:  Solving for p, Initial residual = 0.490305, Final residual = 0.0262344, No Iterations 4
time step continuity errors : sum local = 7.08212, global = -0.803675, cumulative = -0.915331
ExecutionTime = 0.02 s  ClockTime = 0 s

Time = 8

smoothSolver:  Solving for Uy, Initial residual = 0.310211, Final residual = 0.0218609, No Iterations 2
smoothSolver:  Solving for Uz, Initial residual = 0.14162, Final residual = 0.0109451, No Iterations 2
smoothSolver:  Solving for h, Initial residual = 0.0261312, Final residual = 0.00175723, No Iterations 2
GAMG:  Solving for p, Initial residual = 0.162128, Final residual = 0.00621587, No Iterations 4
time step continuity errors : sum local = 4.86805, global = 0.548885, cumulative = -0.366446
ExecutionTime = 0.03 s  ClockTime = 0 s

Time = 9

smoothSolver:  Solving for Uy, Initial residual = 0.286581, Final residual = 0.0194136, No Iterations 2
smoothSolver:  Solving for Uz, Initial residual = 0.0754018, Final residual = 0.0058612, No Iterations 2
smoothSolver:  Solving for h, Initial residual = 0.0232205, Final residual = 0.00160402, No Iterations 2
GAMG:  Solving for p, Initial residual = 0.226457, Final residual = 0.0225338, No Iterations 4
time step continuity errors : sum local = 14.7542, global = 0.251237, cumulative = -0.115209
ExecutionTime = 0.03 s  ClockTime = 0 s

Time = 10

smoothSolver:  Solving for Uy, Initial residual = 0.232389, Final residual = 0.018041, No Iterations 2
smoothSolver:  Solving for Uz, Initial residual = 0.0225943, Final residual = 0.00159842, No Iterations 2
smoothSolver:  Solving for h, Initial residual = 0.0209802, Final residual = 0.00147926, No Iterations 2
GAMG:  Solving for p, Initial residual = 0.633645, Final residual = 0.0244888, No Iterations 4
time step continuity errors : sum local = 4.39235, global = 0.435386, cumulative = 0.320177
ExecutionTime = 0.03 s  ClockTime = 0 s

Time = 11

smoothSolver:  Solving for Uy, Initial residual = 0.149364, Final residual = 0.0113636, No Iterations 2
smoothSolver:  Solving for Uz, Initial residual = 0.0626328, Final residual = 0.00488855, No Iterations 2
smoothSolver:  Solving for h, Initial residual = 0.0191967, Final residual = 0.00137562, No Iterations 2
GAMG:  Solving for p, Initial residual = 0.202867, Final residual = 0.0143343, No Iterations 3
time step continuity errors : sum local = 6.29042, global = -0.230266, cumulative = 0.089911
ExecutionTime = 0.04 s  ClockTime = 0 s

Time = 12

smoothSolver:  Solving for Uy, Initial residual = 0.111312, Final residual = 0.00783121, No Iterations 2
smoothSolver:  Solving for Uz, Initial residual = 0.0462919, Final residual = 0.00360862, No Iterations 2
smoothSolver:  Solving for h, Initial residual = 0.0177375, Final residual = 0.00128795, No Iterations 2
GAMG:  Solving for p, Initial residual = 0.286094, Final residual = 0.0262221, No Iterations 3
time step continuity errors : sum local = 8.80486, global = -1.32073, cumulative = -1.23081
ExecutionTime = 0.04 s  ClockTime = 0 s

Time = 13

smoothSolver:  Solving for Uy, Initial residual = 0.093046, Final residual = 0.00613267, No Iterations 2
smoothSolver:  Solving for Uz, Initial residual = 0.0141627, Final residual = 0.000946185, No Iterations 2
smoothSolver:  Solving for h, Initial residual = 0.0165251, Final residual = 0.00121315, No Iterations 2
GAMG:  Solving for p, Initial residual = 0.544914, Final residual = 0.0491557, No Iterations 3
time step continuity errors : sum local = 7.83158, global = -1.00529, cumulative = -2.2361
ExecutionTime = 0.04 s  ClockTime = 0 s

Time = 14

smoothSolver:  Solving for Uy, Initial residual = 0.0961641, Final residual = 0.00704375, No Iterations 2
smoothSolver:  Solving for Uz, Initial residual = 0.0422224, Final residual = 0.00321243, No Iterations 2
smoothSolver:  Solving for h, Initial residual = 0.0155032, Final residual = 0.00114871, No Iterations 2
GAMG:  Solving for p, Initial residual = 0.228313, Final residual = 0.00884163, No Iterations 4
time step continuity errors : sum local = 2.73509, global = 0.0696596, cumulative = -2.16644
ExecutionTime = 0.05 s  ClockTime = 0 s

Time = 15

smoothSolver:  Solving for Uy, Initial residual = 0.110356, Final residual = 0.00801295, No Iterations 2
smoothSolver:  Solving for Uz, Initial residual = 0.0332792, Final residual = 0.00253695, No Iterations 2
smoothSolver:  Solving for h, Initial residual = 0.014625, Final residual = 0.0010923, No Iterations 2
GAMG:  Solving for p, Initial residual = 0.242578, Final residual = 0.0141272, No Iterations 3
time step continuity errors : sum local = 3.96284, global = 0.785675, cumulative = -1.38077
ExecutionTime = 0.05 s  ClockTime = 0 s

Time = 16

smoothSolver:  Solving for Uy, Initial residual = 0.0894119, Final residual = 0.00598141, No Iterations 2
smoothSolver:  Solving for Uz, Initial residual = 0.0076696, Final residual = 0.000480663, No Iterations 2
smoothSolver:  Solving for h, Initial residual = 0.0138637, Final residual = 0.00104272, No Iterations 2
GAMG:  Solving for p, Initial residual = 0.485558, Final residual = 0.0344205, No Iterations 3
time step continuity errors : sum local = 4.5032, global = 0.566604, cumulative = -0.814162
ExecutionTime = 0.05 s  ClockTime = 0 s

Time = 17

smoothSolver:  Solving for Uy, Initial residual = 0.0739694, Final residual = 0.0048788, No Iterations 2
smoothSolver:  Solving for Uz, Initial residual = 0.0196671, Final residual = 0.00147665, No Iterations 2
smoothSolver:  Solving for h, Initial residual = 0.013192, Final residual = 0.000998376, No Iterations 2
GAMG:  Solving for p, Initial residual = 0.343057, Final residual = 0.0235053, No Iterations 3
time step continuity errors : sum local = 3.59461, global = 0.199576, cumulative = -0.614586
ExecutionTime = 0.06 s  ClockTime = 0 s

Time = 18

smoothSolver:  Solving for Uy, Initial residual = 0.0670708, Final residual = 0.00483229, No Iterations 2
smoothSolver:  Solving for Uz, Initial residual = 0.0205311, Final residual = 0.00157231, No Iterations 2
smoothSolver:  Solving for h, Initial residual = 0.0125992, Final residual = 0.000958875, No Iterations 2
GAMG:  Solving for p, Initial residual = 0.308958, Final residual = 0.0274833, No Iterations 3
time step continuity errors : sum local = 3.9458, global = -0.523184, cumulative = -1.13777
ExecutionTime = 0.06 s  ClockTime = 0 s

Time = 19

smoothSolver:  Solving for Uy, Initial residual = 0.0474329, Final residual = 0.00330472, No Iterations 2
smoothSolver:  Solving for Uz, Initial residual = 0.00857456, Final residual = 0.000604412, No Iterations 2
smoothSolver:  Solving for h, Initial residual = 0.0120689, Final residual = 0.000923149, No Iterations 2
GAMG:  Solving for p, Initial residual = 0.657892, Final residual = 0.0459779, No Iterations 3
time step continuity errors : sum local = 2.98961, global = -0.175709, cumulative = -1.31348
ExecutionTime = 0.06 s  ClockTime = 0 s

Time = 20

smoothSolver:  Solving for Uy, Initial residual = 0.0310228, Final residual = 0.00188232, No Iterations 2
smoothSolver:  Solving for Uz, Initial residual = 0.0128197, Final residual = 0.000934141, No Iterations 2
smoothSolver:  Solving for h, Initial residual = 0.011594, Final residual = 0.000890798, No Iterations 2
GAMG:  Solving for p, Initial residual = 0.260634, Final residual = 0.0162539, No Iterations 3
time step continuity errors : sum local = 2.28907, global = -0.0491556, cumulative = -1.36263
ExecutionTime = 0.06 s  ClockTime = 0 s

Time = 21

smoothSolver:  Solving for Uy, Initial residual = 0.032142, Final residual = 0.00206818, No Iterations 2
smoothSolver:  Solving for Uz, Initial residual = 0.0142709, Final residual = 0.00106571, No Iterations 2
smoothSolver:  Solving for h, Initial residual = 0.011169, Final residual = 0.000861626, No Iterations 2
GAMG:  Solving for p, Initial residual = 0.193192, Final residual = 0.0133069, No Iterations 3
time step continuity errors : sum local = 1.95736, global = 0.335685, cumulative = -1.02695
ExecutionTime = 0.07 s  ClockTime = 0 s

Time = 22

smoothSolver:  Solving for Uy, Initial residual = 0.0301312, Final residual = 0.00195576, No Iterations 2
smoothSolver:  Solving for Uz, Initial residual = 0.00683837, Final residual = 0.000477452, No Iterations 2
smoothSolver:  Solving for h, Initial residual = 0.0107856, Final residual = 0.000835116, No Iterations 2
GAMG:  Solving for p, Initial residual = 0.237897, Final residual = 0.0145285, No Iterations 3
time step continuity errors : sum local = 1.43757, global = 0.205891, cumulative = -0.821059
ExecutionTime = 0.08 s  ClockTime = 0 s

Time = 23

smoothSolver:  Solving for Uy, Initial residual = 0.0203947, Final residual = 0.00122328, No Iterations 2
smoothSolver:  Solving for Uz, Initial residual = 0.0070796, Final residual = 0.000500654, No Iterations 2
smoothSolver:  Solving for h, Initial residual = 0.0104386, Final residual = 0.000811005, No Iterations 2
GAMG:  Solving for p, Initial residual = 0.452252, Final residual = 0.0244353, No Iterations 3
time step continuity errors : sum local = 1.2245, global = 0.0560985, cumulative = -0.76496
ExecutionTime = 0.08 s  ClockTime = 0 s

Time = 24

smoothSolver:  Solving for Uy, Initial residual = 0.0178922, Final residual = 0.00108577, No Iterations 2
smoothSolver:  Solving for Uz, Initial residual = 0.00880529, Final residual = 0.00065707, No Iterations 2
smoothSolver:  Solving for h, Initial residual = 0.0101216, Final residual = 0.000788888, No Iterations 2
GAMG:  Solving for p, Initial residual = 0.291122, Final residual = 0.0148123, No Iterations 3
time step continuity errors : sum local = 0.923009, global = -0.180129, cumulative = -0.945089
ExecutionTime = 0.08 s  ClockTime = 0 s

Time = 25

smoothSolver:  Solving for Uy, Initial residual = 0.0170521, Final residual = 0.00108779, No Iterations 2
smoothSolver:  Solving for Uz, Initial residual = 0.00498498, Final residual = 0.000349763, No Iterations 2
smoothSolver:  Solving for h, Initial residual = 0.00983158, Final residual = 0.000768574, No Iterations 2
GAMG:  Solving for p, Initial residual = 0.410338, Final residual = 0.0216505, No Iterations 3
time step continuity errors : sum local = 0.75303, global = -0.141274, cumulative = -1.08636
ExecutionTime = 0.09 s  ClockTime = 0 s

Time = 26

smoothSolver:  Solving for Uy, Initial residual = 0.0126519, Final residual = 0.000774757, No Iterations 2
smoothSolver:  Solving for Uz, Initial residual = 0.00485744, Final residual = 0.000330762, No Iterations 2
smoothSolver:  Solving for h, Initial residual = 0.0095659, Final residual = 0.000749858, No Iterations 2
GAMG:  Solving for p, Initial residual = 0.157583, Final residual = 0.0150114, No Iterations 2
time step continuity errors : sum local = 1.10694, global = -0.133406, cumulative = -1.21977
ExecutionTime = 0.09 s  ClockTime = 0 s

Time = 27

smoothSolver:  Solving for Uy, Initial residual = 0.0105063, Final residual = 0.000655796, No Iterations 2
smoothSolver:  Solving for Uz, Initial residual = 0.00620138, Final residual = 0.000447594, No Iterations 2
smoothSolver:  Solving for h, Initial residual = 0.00932197, Final residual = 0.000732608, No Iterations 2
GAMG:  Solving for p, Initial residual = 0.129624, Final residual = 0.00894574, No Iterations 3
time step continuity errors : sum local = 0.755531, global = 0.0512628, cumulative = -1.16851
ExecutionTime = 0.09 s  ClockTime = 0 s

Time = 28

smoothSolver:  Solving for Uy, Initial residual = 0.00960384, Final residual = 0.000616958, No Iterations 2
smoothSolver:  Solving for Uz, Initial residual = 0.00378958, Final residual = 0.000258888, No Iterations 2
smoothSolver:  Solving for h, Initial residual = 0.00909608, Final residual = 0.000716508, No Iterations 2
GAMG:  Solving for p, Initial residual = 0.125748, Final residual = 0.00668249, No Iterations 4
time step continuity errors : sum local = 0.476792, global = 0.0183457, cumulative = -1.15016
ExecutionTime = 0.09 s  ClockTime = 0 s

Time = 29

smoothSolver:  Solving for Uy, Initial residual = 0.00851513, Final residual = 0.000536155, No Iterations 2
smoothSolver:  Solving for Uz, Initial residual = 0.00265934, Final residual = 0.00016624, No Iterations 2
smoothSolver:  Solving for h, Initial residual = 0.0088873, Final residual = 0.000701571, No Iterations 2
GAMG:  Solving for p, Initial residual = 0.168682, Final residual = 0.0161179, No Iterations 2
time step continuity errors : sum local = 0.713927, global = 0.101212, cumulative = -1.04895
ExecutionTime = 0.1 s  ClockTime = 0 s

Time = 30

smoothSolver:  Solving for Uy, Initial residual = 0.00722512, Final residual = 0.000450683, No Iterations 2
smoothSolver:  Solving for Uz, Initial residual = 0.00345748, Final residual = 0.000235341, No Iterations 2
smoothSolver:  Solving for h, Initial residual = 0.00869387, Final residual = 0.000687669, No Iterations 2
GAMG:  Solving for p, Initial residual = 0.178008, Final residual = 0.0107694, No Iterations 3
time step continuity errors : sum local = 0.388957, global = -0.0267602, cumulative = -1.07571
ExecutionTime = 0.1 s  ClockTime = 0 s

Time = 31

smoothSolver:  Solving for Uy, Initial residual = 0.00590111, Final residual = 0.0003609, No Iterations 2
smoothSolver:  Solving for Uz, Initial residual = 0.00265689, Final residual = 0.000174158, No Iterations 2
smoothSolver:  Solving for h, Initial residual = 0.0085138, Final residual = 0.000674689, No Iterations 2
GAMG:  Solving for p, Initial residual = 0.14325, Final residual = 0.0089506, No Iterations 3
time step continuity errors : sum local = 0.359275, global = -0.0431939, cumulative = -1.1189
ExecutionTime = 0.1 s  ClockTime = 0 s

Time = 32

smoothSolver:  Solving for Uy, Initial residual = 0.00398215, Final residual = 0.000237167, No Iterations 2
smoothSolver:  Solving for Uz, Initial residual = 0.00159621, Final residual = 8.61612e-05, No Iterations 2
smoothSolver:  Solving for h, Initial residual = 0.00834575, Final residual = 0.000662535, No Iterations 2
GAMG:  Solving for p, Initial residual = 0.087621, Final residual = 0.00738485, No Iterations 3
time step continuity errors : sum local = 0.384909, global = -0.00779923, cumulative = -1.1267
ExecutionTime = 0.11 s  ClockTime = 0 s

Time = 33

smoothSolver:  Solving for Uy, Initial residual = 0.00396624, Final residual = 0.000252938, No Iterations 2
smoothSolver:  Solving for Uz, Initial residual = 0.00255589, Final residual = 0.000167896, No Iterations 2
smoothSolver:  Solving for h, Initial residual = 0.00818829, Final residual = 0.00065108, No Iterations 2
GAMG:  Solving for p, Initial residual = 0.0669252, Final residual = 0.00333625, No Iterations 3
time step continuity errors : sum local = 0.197265, global = 0.0165851, cumulative = -1.11012
ExecutionTime = 0.11 s  ClockTime = 0 s

Time = 34

smoothSolver:  Solving for Uy, Initial residual = 0.00465576, Final residual = 0.000318912, No Iterations 2
smoothSolver:  Solving for Uz, Initial residual = 0.00206657, Final residual = 0.000130264, No Iterations 2
smoothSolver:  Solving for h, Initial residual = 0.00804099, Final residual = 0.000640327, No Iterations 2
GAMG:  Solving for p, Initial residual = 0.0617202, Final residual = 0.00195415, No Iterations 4
time step continuity errors : sum local = 0.109314, global = 0.0165485, cumulative = -1.09357
ExecutionTime = 0.11 s  ClockTime = 0 s

Time = 35

smoothSolver:  Solving for Uy, Initial residual = 0.00417828, Final residual = 0.000307298, No Iterations 2
smoothSolver:  Solving for Uz, Initial residual = 0.00135332, Final residual = 7.11191e-05, No Iterations 2
smoothSolver:  Solving for h, Initial residual = 0.0079029, Final residual = 0.000630221, No Iterations 2
GAMG:  Solving for p, Initial residual = 0.0586053, Final residual = 0.00567903, No Iterations 3
time step continuity errors : sum local = 0.268264, global = 0.00546592, cumulative = -1.0881
ExecutionTime = 0.12 s  ClockTime = 0 s

Time = 36

smoothSolver:  Solving for Uy, Initial residual = 0.00298456, Final residual = 0.000208945, No Iterations 2
smoothSolver:  Solving for Uz, Initial residual = 0.00184843, Final residual = 0.00011449, No Iterations 2
smoothSolver:  Solving for h, Initial residual = 0.0077733, Final residual = 0.00062071, No Iterations 2
GAMG:  Solving for p, Initial residual = 0.0553336, Final residual = 0.00264709, No Iterations 3
time step continuity errors : sum local = 0.111923, global = -0.0108178, cumulative = -1.09892
ExecutionTime = 0.12 s  ClockTime = 0 s

Time = 37

smoothSolver:  Solving for Uy, Initial residual = 0.00233285, Final residual = 0.000148305, No Iterations 2
smoothSolver:  Solving for Uz, Initial residual = 0.00157319, Final residual = 9.34413e-05, No Iterations 2
smoothSolver:  Solving for h, Initial residual = 0.00765163, Final residual = 0.000611733, No Iterations 2
GAMG:  Solving for p, Initial residual = 0.0477613, Final residual = 0.00168717, No Iterations 4
time step continuity errors : sum local = 0.074336, global = -0.0115218, cumulative = -1.11044
ExecutionTime = 0.12 s  ClockTime = 0 s

Time = 38

smoothSolver:  Solving for Uy, Initial residual = 0.00193939, Final residual = 0.000126498, No Iterations 2
smoothSolver:  Solving for Uz, Initial residual = 0.00116756, Final residual = 5.97039e-05, No Iterations 2
smoothSolver:  Solving for h, Initial residual = 0.00753684, Final residual = 0.000603232, No Iterations 2
GAMG:  Solving for p, Initial residual = 0.0325339, Final residual = 0.0030957, No Iterations 3
time step continuity errors : sum local = 0.152481, global = -0.0031016, cumulative = -1.11354
ExecutionTime = 0.12 s  ClockTime = 0 s

Time = 39

smoothSolver:  Solving for Uy, Initial residual = 0.00161575, Final residual = 0.000101978, No Iterations 2
smoothSolver:  Solving for Uz, Initial residual = 0.00148362, Final residual = 8.61175e-05, No Iterations 2
smoothSolver:  Solving for h, Initial residual = 0.00742817, Final residual = 0.000595164, No Iterations 2
GAMG:  Solving for p, Initial residual = 0.0250684, Final residual = 0.00113983, No Iterations 3
time step continuity errors : sum local = 0.0595228, global = 0.00608315, cumulative = -1.10746
ExecutionTime = 0.13 s  ClockTime = 0 s

Time = 40

smoothSolver:  Solving for Uy, Initial residual = 0.00190558, Final residual = 0.000133961, No Iterations 2
smoothSolver:  Solving for Uz, Initial residual = 0.00126146, Final residual = 6.97071e-05, No Iterations 2
smoothSolver:  Solving for h, Initial residual = 0.00732545, Final residual = 0.000587516, No Iterations 2
GAMG:  Solving for p, Initial residual = 0.0250059, Final residual = 0.00167399, No Iterations 4
time step continuity errors : sum local = 0.0852605, global = 0.00448879, cumulative = -1.10297
ExecutionTime = 0.13 s  ClockTime = 0 s

Time = 41

smoothSolver:  Solving for Uy, Initial residual = 0.00207691, Final residual = 0.000155528, No Iterations 2
smoothSolver:  Solving for Uz, Initial residual = 0.00102186, Final residual = 5.07688e-05, No Iterations 2
smoothSolver:  Solving for h, Initial residual = 0.00722821, Final residual = 0.000580256, No Iterations 2
GAMG:  Solving for p, Initial residual = 0.0204996, Final residual = 0.00182256, No Iterations 3
time step continuity errors : sum local = 0.0863583, global = 0.00236424, cumulative = -1.10061
ExecutionTime = 0.13 s  ClockTime = 0 s

Time = 42

smoothSolver:  Solving for Uy, Initial residual = 0.00191498, Final residual = 0.000143946, No Iterations 2
smoothSolver:  Solving for Uz, Initial residual = 0.00121405, Final residual = 6.72688e-05, No Iterations 2
smoothSolver:  Solving for h, Initial residual = 0.0071359, Final residual = 0.000573337, No Iterations 2
GAMG:  Solving for p, Initial residual = 0.0148694, Final residual = 0.000891895, No Iterations 3
time step continuity errors : sum local = 0.040589, global = -0.00401761, cumulative = -1.10462
ExecutionTime = 0.13 s  ClockTime = 0 s

Time = 43

smoothSolver:  Solving for Uy, Initial residual = 0.00149566, Final residual = 0.000109753, No Iterations 2
smoothSolver:  Solving for Uz, Initial residual = 0.0010782, Final residual = 5.7073e-05, No Iterations 2
smoothSolver:  Solving for h, Initial residual = 0.00704803, Final residual = 0.000566734, No Iterations 2
GAMG:  Solving for p, Initial residual = 0.0157063, Final residual = 0.00150443, No Iterations 3
time step continuity errors : sum local = 0.069645, global = -0.00316328, cumulative = -1.10779
ExecutionTime = 0.14 s  ClockTime = 0 s

Time = 44

smoothSolver:  Solving for Uy, Initial residual = 0.00104614, Final residual = 7.3554e-05, No Iterations 2
smoothSolver:  Solving for Uz, Initial residual = 0.000935508, Final residual = 4.57386e-05, No Iterations 2
smoothSolver:  Solving for h, Initial residual = 0.00696424, Final residual = 0.000560425, No Iterations 2
GAMG:  Solving for p, Initial residual = 0.0120862, Final residual = 0.00105788, No Iterations 3
time step continuity errors : sum local = 0.0511745, global = -0.00138433, cumulative = -1.10917
ExecutionTime = 0.14 s  ClockTime = 0 s

Time = 45

smoothSolver:  Solving for Uy, Initial residual = 0.000966358, Final residual = 6.64503e-05, No Iterations 2
smoothSolver:  Solving for Uz, Initial residual = 0.00102918, Final residual = 5.3945e-05, No Iterations 2
smoothSolver:  Solving for h, Initial residual = 0.00688421, Final residual = 0.000554373, No Iterations 2
GAMG:  Solving for p, Initial residual = 0.00826248, Final residual = 0.00072208, No Iterations 3
time step continuity errors : sum local = 0.0357387, global = 0.00278288, cumulative = -1.10639
ExecutionTime = 0.14 s  ClockTime = 0 s

Time = 46

smoothSolver:  Solving for Uy, Initial residual = 0.00106221, Final residual = 7.54481e-05, No Iterations 2
smoothSolver:  Solving for Uz, Initial residual = 0.000950908, Final residual = 4.84292e-05, No Iterations 2
smoothSolver:  Solving for h, Initial residual = 0.00680759, Final residual = 0.000548557, No Iterations 2
GAMG:  Solving for p, Initial residual = 0.00858824, Final residual = 0.000838899, No Iterations 3
time step continuity errors : sum local = 0.0411084, global = 0.00161488, cumulative = -1.10477
ExecutionTime = 0.14 s  ClockTime = 0 s

Time = 47

smoothSolver:  Solving for Uy, Initial residual = 0.00109098, Final residual = 7.93644e-05, No Iterations 2
smoothSolver:  Solving for Uz, Initial residual = 0.000876011, Final residual = 4.29484e-05, No Iterations 2
smoothSolver:  Solving for h, Initial residual = 0.00673406, Final residual = 0.000542961, No Iterations 2
GAMG:  Solving for p, Initial residual = 0.00737669, Final residual = 0.000604373, No Iterations 3
time step continuity errors : sum local = 0.0288098, global = 0.00143367, cumulative = -1.10334
ExecutionTime = 0.15 s  ClockTime = 0 s

Time = 48

smoothSolver:  Solving for Uy, Initial residual = 0.0011643, Final residual = 8.68903e-05, No Iterations 2
smoothSolver:  Solving for Uz, Initial residual = 0.00090304, Final residual = 4.59064e-05, No Iterations 2
smoothSolver:  Solving for h, Initial residual = 0.0066633, Final residual = 0.000537562, No Iterations 2
GAMG:  Solving for p, Initial residual = 0.0057095, Final residual = 0.000364468, No Iterations 3
time step continuity errors : sum local = 0.0171011, global = -0.00229058, cumulative = -1.10563
ExecutionTime = 0.15 s  ClockTime = 0 s

Time = 49

smoothSolver:  Solving for Uy, Initial residual = 0.0011221, Final residual = 8.37238e-05, No Iterations 2
smoothSolver:  Solving for Uz, Initial residual = 0.000851181, Final residual = 4.22421e-05, No Iterations 2
smoothSolver:  Solving for h, Initial residual = 0.00659483, Final residual = 0.000532324, No Iterations 2
GAMG:  Solving for p, Initial residual = 0.00500931, Final residual = 0.000326578, No Iterations 4
time step continuity errors : sum local = 0.0154102, global = -0.00073225, cumulative = -1.10636
ExecutionTime = 0.15 s  ClockTime = 0 s

Time = 50

smoothSolver:  Solving for Uy, Initial residual = 0.000995513, Final residual = 7.31668e-05, No Iterations 2
smoothSolver:  Solving for Uz, Initial residual = 0.000810317, Final residual = 3.92664e-05, No Iterations 2
smoothSolver:  Solving for h, Initial residual = 0.00652861, Final residual = 0.000527246, No Iterations 2
GAMG:  Solving for p, Initial residual = 0.00418918, Final residual = 0.000378639, No Iterations 3
time step continuity errors : sum local = 0.0181923, global = -0.000796725, cumulative = -1.10716
ExecutionTime = 0.16 s  ClockTime = 0 s

Time = 51

smoothSolver:  Solving for Uy, Initial residual = 0.000930953, Final residual = 6.81361e-05, No Iterations 2
smoothSolver:  Solving for Uz, Initial residual = 0.00081409, Final residual = 4.00176e-05, No Iterations 2
smoothSolver:  Solving for h, Initial residual = 0.00646466, Final residual = 0.00052233, No Iterations 2
GAMG:  Solving for p, Initial residual = 0.00318312, Final residual = 0.000219524, No Iterations 3
time step continuity errors : sum local = 0.0106349, global = 0.00146226, cumulative = -1.1057
ExecutionTime = 0.16 s  ClockTime = 0 s

Time = 52

smoothSolver:  Solving for Uy, Initial residual = 0.000890134, Final residual = 6.54009e-05, No Iterations 2
smoothSolver:  Solving for Uz, Initial residual = 0.000786364, Final residual = 3.83809e-05, No Iterations 2
smoothSolver:  Solving for h, Initial residual = 0.0064026, Final residual = 0.000517547, No Iterations 2
GAMG:  Solving for p, Initial residual = 0.00306421, Final residual = 0.000217797, No Iterations 4
time step continuity errors : sum local = 0.0105073, global = 0.000484605, cumulative = -1.10521
ExecutionTime = 0.16 s  ClockTime = 0 s

Time = 53

smoothSolver:  Solving for Uy, Initial residual = 0.000841408, Final residual = 6.19743e-05, No Iterations 2
smoothSolver:  Solving for Uz, Initial residual = 0.000767274, Final residual = 3.73736e-05, No Iterations 2
smoothSolver:  Solving for h, Initial residual = 0.00634224, Final residual = 0.000512885, No Iterations 2
GAMG:  Solving for p, Initial residual = 0.00257576, Final residual = 0.000142571, No Iterations 3
time step continuity errors : sum local = 0.00679746, global = 0.000976698, cumulative = -1.10424
ExecutionTime = 0.16 s  ClockTime = 0 s

Time = 54

smoothSolver:  Solving for Uy, Initial residual = 0.000815217, Final residual = 6.02079e-05, No Iterations 2
smoothSolver:  Solving for Uz, Initial residual = 0.000760828, Final residual = 3.73097e-05, No Iterations 2
smoothSolver:  Solving for h, Initial residual = 0.00628365, Final residual = 0.000508349, No Iterations 2
GAMG:  Solving for p, Initial residual = 0.00199377, Final residual = 0.000128001, No Iterations 3
time step continuity errors : sum local = 0.00607222, global = -0.000740764, cumulative = -1.10498
ExecutionTime = 0.17 s  ClockTime = 0 s

Time = 55

smoothSolver:  Solving for Uy, Initial residual = 0.000804292, Final residual = 5.93946e-05, No Iterations 2
smoothSolver:  Solving for Uz, Initial residual = 0.000737893, Final residual = 3.59513e-05, No Iterations 2
smoothSolver:  Solving for h, Initial residual = 0.00622675, Final residual = 0.000503936, No Iterations 2
GAMG:  Solving for p, Initial residual = 0.00198227, Final residual = 0.000184689, No Iterations 3
time step continuity errors : sum local = 0.00878348, global = -0.000242183, cumulative = -1.10522
ExecutionTime = 0.17 s  ClockTime = 0 s

Time = 56

smoothSolver:  Solving for Uy, Initial residual = 0.000790531, Final residual = 5.84915e-05, No Iterations 2
smoothSolver:  Solving for Uz, Initial residual = 0.000716811, Final residual = 3.46432e-05, No Iterations 2
smoothSolver:  Solving for h, Initial residual = 0.00617132, Final residual = 0.000499626, No Iterations 2
GAMG:  Solving for p, Initial residual = 0.0016693, Final residual = 0.000109897, No Iterations 3
time step continuity errors : sum local = 0.00526119, global = -0.000148546, cumulative = -1.10537
ExecutionTime = 0.17 s  ClockTime = 0 s

Time = 57

smoothSolver:  Solving for Uy, Initial residual = 0.000791188, Final residual = 5.88973e-05, No Iterations 2
smoothSolver:  Solving for Uz, Initial residual = 0.000704402, Final residual = 3.40642e-05, No Iterations 2
smoothSolver:  Solving for h, Initial residual = 0.00611731, Final residual = 0.000495424, No Iterations 2
GAMG:  Solving for p, Initial residual = 0.00141645, Final residual = 0.000130112, No Iterations 3
time step continuity errors : sum local = 0.00624885, global = 0.000599445, cumulative = -1.10477
ExecutionTime = 0.18 s  ClockTime = 0 s

Time = 58

smoothSolver:  Solving for Uy, Initial residual = 0.000782032, Final residual = 5.84575e-05, No Iterations 2
smoothSolver:  Solving for Uz, Initial residual = 0.000688279, Final residual = 3.32302e-05, No Iterations 2
smoothSolver:  Solving for h, Initial residual = 0.00606483, Final residual = 0.000491329, No Iterations 2
GAMG:  Solving for p, Initial residual = 0.00129044, Final residual = 7.2952e-05, No Iterations 4
time step continuity errors : sum local = 0.0034979, global = 0.000176468, cumulative = -1.10459
ExecutionTime = 0.18 s  ClockTime = 0 s

Time = 59

smoothSolver:  Solving for Uy, Initial residual = 0.000752621, Final residual = 5.62965e-05, No Iterations 2
smoothSolver:  Solving for Uz, Initial residual = 0.000674868, Final residual = 3.26067e-05, No Iterations 2
smoothSolver:  Solving for h, Initial residual = 0.00601367, Final residual = 0.000487328, No Iterations 2
GAMG:  Solving for p, Initial residual = 0.00108664, Final residual = 7.27915e-05, No Iterations 3
time step continuity errors : sum local = 0.00347387, global = 0.000297259, cumulative = -1.10429
ExecutionTime = 0.18 s  ClockTime = 0 s

Time = 60

smoothSolver:  Solving for Uy, Initial residual = 0.000711072, Final residual = 5.30112e-05, No Iterations 2
smoothSolver:  Solving for Uz, Initial residual = 0.000664303, Final residual = 3.21745e-05, No Iterations 2
smoothSolver:  Solving for h, Initial residual = 0.00596373, Final residual = 0.000483414, No Iterations 2
GAMG:  Solving for p, Initial residual = 0.00096374, Final residual = 6.50645e-05, No Iterations 3
time step continuity errors : sum local = 0.00309874, global = -0.000255144, cumulative = -1.10455
ExecutionTime = 0.19 s  ClockTime = 0 s

Time = 61

smoothSolver:  Solving for Uy, Initial residual = 0.000679657, Final residual = 5.05041e-05, No Iterations 2
smoothSolver:  Solving for Uz, Initial residual = 0.000650382, Final residual = 3.1434e-05, No Iterations 2
smoothSolver:  Solving for h, Initial residual = 0.00591493, Final residual = 0.000479595, No Iterations 2
GAMG:  Solving for p, Initial residual = 0.000889282, Final residual = 2.94403e-05, No Iterations 4
time step continuity errors : sum local = 0.00140353, global = -0.000150034, cumulative = -1.1047
ExecutionTime = 0.19 s  ClockTime = 0 s

Time = 62

smoothSolver:  Solving for Uy, Initial residual = 0.000663011, Final residual = 4.92012e-05, No Iterations 2
smoothSolver:  Solving for Uz, Initial residual = 0.00063628, Final residual = 3.0669e-05, No Iterations 2
smoothSolver:  Solving for h, Initial residual = 0.00586731, Final residual = 0.000475856, No Iterations 2
GAMG:  Solving for p, Initial residual = 0.000791947, Final residual = 2.82344e-05, No Iterations 4
time step continuity errors : sum local = 0.00134941, global = -9.12257e-05, cumulative = -1.10479
ExecutionTime = 0.19 s  ClockTime = 0 s

Time = 63

smoothSolver:  Solving for Uy, Initial residual = 0.00066237, Final residual = 4.92144e-05, No Iterations 2
smoothSolver:  Solving for Uz, Initial residual = 0.000623391, Final residual = 3.00161e-05, No Iterations 2
smoothSolver:  Solving for h, Initial residual = 0.00582079, Final residual = 0.000472189, No Iterations 2
GAMG:  Solving for p, Initial residual = 0.00080046, Final residual = 7.99069e-05, No Iterations 3
time step continuity errors : sum local = 0.00382326, global = 0.000263637, cumulative = -1.10453
ExecutionTime = 0.19 s  ClockTime = 0 s

Time = 64

smoothSolver:  Solving for Uy, Initial residual = 0.000662577, Final residual = 4.93244e-05, No Iterations 2
smoothSolver:  Solving for Uz, Initial residual = 0.000610056, Final residual = 2.93368e-05, No Iterations 2
smoothSolver:  Solving for h, Initial residual = 0.00577522, Final residual = 0.00046859, No Iterations 2
GAMG:  Solving for p, Initial residual = 0.000774092, Final residual = 3.20215e-05, No Iterations 4
time step continuity errors : sum local = 0.00153096, global = 0.000130236, cumulative = -1.1044
ExecutionTime = 0.2 s  ClockTime = 0 s

Time = 65

smoothSolver:  Solving for Uy, Initial residual = 0.000653709, Final residual = 4.87877e-05, No Iterations 2
smoothSolver:  Solving for Uz, Initial residual = 0.000597929, Final residual = 2.87559e-05, No Iterations 2
smoothSolver:  Solving for h, Initial residual = 0.00573044, Final residual = 0.000465049, No Iterations 2
GAMG:  Solving for p, Initial residual = 0.000660079, Final residual = 1.58883e-05, No Iterations 4
time step continuity errors : sum local = 0.00075833, global = 4.9254e-05, cumulative = -1.10435
ExecutionTime = 0.2 s  ClockTime = 0 s

Time = 66

smoothSolver:  Solving for Uy, Initial residual = 0.000634769, Final residual = 4.74171e-05, No Iterations 2
smoothSolver:  Solving for Uz, Initial residual = 0.000586632, Final residual = 2.82221e-05, No Iterations 2
smoothSolver:  Solving for h, Initial residual = 0.00568645, Final residual = 0.000461565, No Iterations 2
GAMG:  Solving for p, Initial residual = 0.000586786, Final residual = 4.09902e-05, No Iterations 3
time step continuity errors : sum local = 0.00195462, global = -0.000111354, cumulative = -1.10446
ExecutionTime = 0.2 s  ClockTime = 0 s

Time = 67

smoothSolver:  Solving for Uy, Initial residual = 0.000610674, Final residual = 4.5578e-05, No Iterations 2
smoothSolver:  Solving for Uz, Initial residual = 0.000574974, Final residual = 2.76321e-05, No Iterations 2
smoothSolver:  Solving for h, Initial residual = 0.00564321, Final residual = 0.000458136, No Iterations 2
GAMG:  Solving for p, Initial residual = 0.000539237, Final residual = 1.79082e-05, No Iterations 4
time step continuity errors : sum local = 0.000854285, global = -7.85131e-05, cumulative = -1.10454
ExecutionTime = 0.2 s  ClockTime = 0 s

Time = 68

smoothSolver:  Solving for Uy, Initial residual = 0.000590511, Final residual = 4.40326e-05, No Iterations 2
smoothSolver:  Solving for Uz, Initial residual = 0.000563502, Final residual = 2.70473e-05, No Iterations 2
smoothSolver:  Solving for h, Initial residual = 0.00560064, Final residual = 0.000454756, No Iterations 2
GAMG:  Solving for p, Initial residual = 0.000486515, Final residual = 2.30844e-05, No Iterations 4
time step continuity errors : sum local = 0.00110225, global = -7.81711e-05, cumulative = -1.10462
ExecutionTime = 0.21 s  ClockTime = 0 s

Time = 69

smoothSolver:  Solving for Uy, Initial residual = 0.000578164, Final residual = 4.3109e-05, No Iterations 2
smoothSolver:  Solving for Uz, Initial residual = 0.000552515, Final residual = 2.65048e-05, No Iterations 2
smoothSolver:  Solving for h, Initial residual = 0.0055587, Final residual = 0.000451421, No Iterations 2
GAMG:  Solving for p, Initial residual = 0.000486392, Final residual = 4.75952e-05, No Iterations 4
time step continuity errors : sum local = 0.00227346, global = 6.66534e-05, cumulative = -1.10455
ExecutionTime = 0.22 s  ClockTime = 0 s

Time = 70

smoothSolver:  Solving for Uy, Initial residual = 0.000569033, Final residual = 4.24348e-05, No Iterations 2
smoothSolver:  Solving for Uz, Initial residual = 0.000541524, Final residual = 2.59642e-05, No Iterations 2
smoothSolver:  Solving for h, Initial residual = 0.00551733, Final residual = 0.000448126, No Iterations 2
GAMG:  Solving for p, Initial residual = 0.000480248, Final residual = 1.47232e-05, No Iterations 5
time step continuity errors : sum local = 0.000703025, global = 4.9064e-05, cumulative = -1.1045
ExecutionTime = 0.22 s  ClockTime = 0 s

Time = 71

smoothSolver:  Solving for Uy, Initial residual = 0.00056133, Final residual = 4.1903e-05, No Iterations 2
smoothSolver:  Solving for Uz, Initial residual = 0.000530789, Final residual = 2.54405e-05, No Iterations 2
smoothSolver:  Solving for h, Initial residual = 0.00547644, Final residual = 0.000444865, No Iterations 2
GAMG:  Solving for p, Initial residual = 0.000446634, Final residual = 4.1575e-05, No Iterations 4
time step continuity errors : sum local = 0.00198379, global = 4.97394e-05, cumulative = -1.10445
ExecutionTime = 0.23 s  ClockTime = 0 s

Time = 72

smoothSolver:  Solving for Uy, Initial residual = 0.00055144, Final residual = 4.11954e-05, No Iterations 2
smoothSolver:  Solving for Uz, Initial residual = 0.000520291, Final residual = 2.49259e-05, No Iterations 2
smoothSolver:  Solving for h, Initial residual = 0.00543581, Final residual = 0.000441621, No Iterations 2
GAMG:  Solving for p, Initial residual = 0.000421208, Final residual = 1.82126e-05, No Iterations 4
time step continuity errors : sum local = 0.000868693, global = -2.24694e-05, cumulative = -1.10447
ExecutionTime = 0.23 s  ClockTime = 0 s

Time = 73

smoothSolver:  Solving for Uy, Initial residual = 0.000539805, Final residual = 4.03368e-05, No Iterations 2
smoothSolver:  Solving for Uz, Initial residual = 0.000509847, Final residual = 2.44051e-05, No Iterations 2
smoothSolver:  Solving for h, Initial residual = 0.00539565, Final residual = 0.000438411, No Iterations 2
GAMG:  Solving for p, Initial residual = 0.000402086, Final residual = 1.79132e-05, No Iterations 4
time step continuity errors : sum local = 0.000854553, global = -8.80023e-05, cumulative = -1.10456
ExecutionTime = 0.23 s  ClockTime = 0 s

Time = 74

smoothSolver:  Solving for Uy, Initial residual = 0.000526665, Final residual = 3.93551e-05, No Iterations 2
smoothSolver:  Solving for Uz, Initial residual = 0.000499673, Final residual = 2.38983e-05, No Iterations 2
smoothSolver:  Solving for h, Initial residual = 0.0053559, Final residual = 0.00043523, No Iterations 2
GAMG:  Solving for p, Initial residual = 0.000380651, Final residual = 1.56104e-05, No Iterations 4
time step continuity errors : sum local = 0.000744845, global = -3.03249e-05, cumulative = -1.10459
ExecutionTime = 0.23 s  ClockTime = 0 s

Time = 75

smoothSolver:  Solving for Uy, Initial residual = 0.000513533, Final residual = 3.83778e-05, No Iterations 2
smoothSolver:  Solving for Uz, Initial residual = 0.000489952, Final residual = 2.34214e-05, No Iterations 2
smoothSolver:  Solving for h, Initial residual = 0.00531637, Final residual = 0.000432064, No Iterations 2
GAMG:  Solving for p, Initial residual = 0.000364091, Final residual = 2.50069e-05, No Iterations 4
time step continuity errors : sum local = 0.00119341, global = 4.76936e-05, cumulative = -1.10454
ExecutionTime = 0.24 s  ClockTime = 0 s

Time = 76

smoothSolver:  Solving for Uy, Initial residual = 0.000501583, Final residual = 3.74901e-05, No Iterations 2
smoothSolver:  Solving for Uz, Initial residual = 0.000480409, Final residual = 2.29557e-05, No Iterations 2
smoothSolver:  Solving for h, Initial residual = 0.00527709, Final residual = 0.000428914, No Iterations 2
GAMG:  Solving for p, Initial residual = 0.00035604, Final residual = 1.09917e-05, No Iterations 5
time step continuity errors : sum local = 0.000524516, global = 4.22356e-05, cumulative = -1.1045
ExecutionTime = 0.24 s  ClockTime = 0 s

Time = 77

smoothSolver:  Solving for Uy, Initial residual = 0.000491784, Final residual = 3.6769e-05, No Iterations 2
smoothSolver:  Solving for Uz, Initial residual = 0.000470988, Final residual = 2.24967e-05, No Iterations 2
smoothSolver:  Solving for h, Initial residual = 0.00523817, Final residual = 0.00042579, No Iterations 2
GAMG:  Solving for p, Initial residual = 0.000340886, Final residual = 2.60107e-05, No Iterations 4
time step continuity errors : sum local = 0.0012408, global = 4.82662e-05, cumulative = -1.10445
ExecutionTime = 0.24 s  ClockTime = 0 s

Time = 78

smoothSolver:  Solving for Uy, Initial residual = 0.000482196, Final residual = 3.60595e-05, No Iterations 2
smoothSolver:  Solving for Uz, Initial residual = 0.000461747, Final residual = 2.20454e-05, No Iterations 2
smoothSolver:  Solving for h, Initial residual = 0.00519961, Final residual = 0.000422692, No Iterations 2
GAMG:  Solving for p, Initial residual = 0.000332094, Final residual = 2.16298e-05, No Iterations 4
time step continuity errors : sum local = 0.0010316, global = 3.18118e-05, cumulative = -1.10442
ExecutionTime = 0.25 s  ClockTime = 0 s

Time = 79

smoothSolver:  Solving for Uy, Initial residual = 0.000473105, Final residual = 3.53882e-05, No Iterations 2
smoothSolver:  Solving for Uz, Initial residual = 0.000452609, Final residual = 2.15961e-05, No Iterations 2
smoothSolver:  Solving for h, Initial residual = 0.00516139, Final residual = 0.000419618, No Iterations 2
GAMG:  Solving for p, Initial residual = 0.000324404, Final residual = 1.14277e-05, No Iterations 4
time step continuity errors : sum local = 0.000545018, global = -3.81401e-05, cumulative = -1.10446
ExecutionTime = 0.25 s  ClockTime = 0 s

Time = 80

smoothSolver:  Solving for Uy, Initial residual = 0.000463727, Final residual = 3.46928e-05, No Iterations 2
smoothSolver:  Solving for Uz, Initial residual = 0.000443625, Final residual = 2.11539e-05, No Iterations 2
smoothSolver:  Solving for h, Initial residual = 0.00512348, Final residual = 0.000416567, No Iterations 2
GAMG:  Solving for p, Initial residual = 0.000313319, Final residual = 1.81628e-05, No Iterations 4
time step continuity errors : sum local = 0.000866249, global = -1.44902e-05, cumulative = -1.10447
ExecutionTime = 0.25 s  ClockTime = 0 s

Time = 81

smoothSolver:  Solving for Uy, Initial residual = 0.000453788, Final residual = 3.39556e-05, No Iterations 2
smoothSolver:  Solving for Uz, Initial residual = 0.000434881, Final residual = 2.07242e-05, No Iterations 2
smoothSolver:  Solving for h, Initial residual = 0.00508587, Final residual = 0.000413537, No Iterations 2
GAMG:  Solving for p, Initial residual = 0.000304818, Final residual = 1.1532e-05, No Iterations 4
time step continuity errors : sum local = 0.000550048, global = 1.85379e-05, cumulative = -1.10446
ExecutionTime = 0.26 s  ClockTime = 0 s

Time = 82

smoothSolver:  Solving for Uy, Initial residual = 0.000443955, Final residual = 3.32278e-05, No Iterations 2
smoothSolver:  Solving for Uz, Initial residual = 0.00042636, Final residual = 2.03077e-05, No Iterations 2
smoothSolver:  Solving for h, Initial residual = 0.0050486, Final residual = 0.000410532, No Iterations 2
GAMG:  Solving for p, Initial residual = 0.000295754, Final residual = 1.89647e-05, No Iterations 4
time step continuity errors : sum local = 0.000904549, global = 4.16056e-05, cumulative = -1.10441
ExecutionTime = 0.26 s  ClockTime = 0 s

Time = 83

smoothSolver:  Solving for Uy, Initial residual = 0.000434439, Final residual = 3.25236e-05, No Iterations 2
smoothSolver:  Solving for Uz, Initial residual = 0.00041801, Final residual = 1.9901e-05, No Iterations 2
smoothSolver:  Solving for h, Initial residual = 0.0050116, Final residual = 0.000407549, No Iterations 2
GAMG:  Solving for p, Initial residual = 0.000290208, Final residual = 1.9986e-05, No Iterations 4
time step continuity errors : sum local = 0.000953124, global = 4.38996e-05, cumulative = -1.10437
ExecutionTime = 0.26 s  ClockTime = 0 s

Time = 84

smoothSolver:  Solving for Uy, Initial residual = 0.000425557, Final residual = 3.18652e-05, No Iterations 2
smoothSolver:  Solving for Uz, Initial residual = 0.000409844, Final residual = 1.95041e-05, No Iterations 2
smoothSolver:  Solving for h, Initial residual = 0.00497492, Final residual = 0.000404593, No Iterations 2
GAMG:  Solving for p, Initial residual = 0.000284729, Final residual = 1.83369e-05, No Iterations 4
time step continuity errors : sum local = 0.00087437, global = 3.74822e-05, cumulative = -1.10433
ExecutionTime = 0.27 s  ClockTime = 0 s

Time = 85

smoothSolver:  Solving for Uy, Initial residual = 0.000417118, Final residual = 3.12388e-05, No Iterations 2
smoothSolver:  Solving for Uz, Initial residual = 0.000401832, Final residual = 1.91146e-05, No Iterations 2
smoothSolver:  Solving for h, Initial residual = 0.00493852, Final residual = 0.000401654, No Iterations 2
GAMG:  Solving for p, Initial residual = 0.000275768, Final residual = 1.12075e-05, No Iterations 4
time step continuity errors : sum local = 0.000534364, global = 1.80254e-05, cumulative = -1.10431
ExecutionTime = 0.27 s  ClockTime = 0 s

Time = 86

smoothSolver:  Solving for Uy, Initial residual = 0.000408816, Final residual = 3.06201e-05, No Iterations 2
smoothSolver:  Solving for Uz, Initial residual = 0.000393948, Final residual = 1.87308e-05, No Iterations 2
smoothSolver:  Solving for h, Initial residual = 0.00490242, Final residual = 0.000398737, No Iterations 2
GAMG:  Solving for p, Initial residual = 0.000264625, Final residual = 1.47614e-05, No Iterations 4
time step continuity errors : sum local = 0.000703802, global = 1.69256e-05, cumulative = -1.1043
ExecutionTime = 0.27 s  ClockTime = 0 s

Time = 87

smoothSolver:  Solving for Uy, Initial residual = 0.000400188, Final residual = 2.99756e-05, No Iterations 2
smoothSolver:  Solving for Uz, Initial residual = 0.000386208, Final residual = 1.83531e-05, No Iterations 2
smoothSolver:  Solving for h, Initial residual = 0.00486658, Final residual = 0.00039584, No Iterations 2
GAMG:  Solving for p, Initial residual = 0.000258749, Final residual = 9.76897e-06, No Iterations 4
time step continuity errors : sum local = 0.00046576, global = 1.61985e-05, cumulative = -1.10428
ExecutionTime = 0.27 s  ClockTime = 0 s

Time = 88

smoothSolver:  Solving for Uy, Initial residual = 0.000391773, Final residual = 2.935e-05, No Iterations 2
smoothSolver:  Solving for Uz, Initial residual = 0.000378623, Final residual = 1.79829e-05, No Iterations 2
smoothSolver:  Solving for h, Initial residual = 0.00483096, Final residual = 0.000392958, No Iterations 2
GAMG:  Solving for p, Initial residual = 0.000253373, Final residual = 1.55899e-05, No Iterations 4
time step continuity errors : sum local = 0.000743282, global = 2.91485e-05, cumulative = -1.10425
ExecutionTime = 0.27 s  ClockTime = 0 s

Time = 89

smoothSolver:  Solving for Uy, Initial residual = 0.000383686, Final residual = 2.87493e-05, No Iterations 2
smoothSolver:  Solving for Uz, Initial residual = 0.000371204, Final residual = 1.76217e-05, No Iterations 2
smoothSolver:  Solving for h, Initial residual = 0.00479551, Final residual = 0.000390088, No Iterations 2
GAMG:  Solving for p, Initial residual = 0.000250348, Final residual = 1.63666e-05, No Iterations 4
time step continuity errors : sum local = 0.000780253, global = 3.40444e-05, cumulative = -1.10422
ExecutionTime = 0.28 s  ClockTime = 0 s

Time = 90

smoothSolver:  Solving for Uy, Initial residual = 0.000376084, Final residual = 2.81854e-05, No Iterations 2
smoothSolver:  Solving for Uz, Initial residual = 0.000363943, Final residual = 1.72694e-05, No Iterations 2
smoothSolver:  Solving for h, Initial residual = 0.00476019, Final residual = 0.000387228, No Iterations 2
GAMG:  Solving for p, Initial residual = 0.000246979, Final residual = 1.62965e-05, No Iterations 4
time step continuity errors : sum local = 0.00077688, global = 3.31932e-05, cumulative = -1.10419
ExecutionTime = 0.28 s  ClockTime = 0 s

Time = 91

smoothSolver:  Solving for Uy, Initial residual = 0.000368683, Final residual = 2.76357e-05, No Iterations 2
smoothSolver:  Solving for Uz, Initial residual = 0.000356837, Final residual = 1.69254e-05, No Iterations 2
smoothSolver:  Solving for h, Initial residual = 0.00472494, Final residual = 0.000384371, No Iterations 2
GAMG:  Solving for p, Initial residual = 0.000239774, Final residual = 1.51969e-05, No Iterations 4
time step continuity errors : sum local = 0.00072441, global = 2.76296e-05, cumulative = -1.10416
ExecutionTime = 0.28 s  ClockTime = 0 s

Time = 92

smoothSolver:  Solving for Uy, Initial residual = 0.000361207, Final residual = 2.70787e-05, No Iterations 2
smoothSolver:  Solving for Uz, Initial residual = 0.00034987, Final residual = 1.65881e-05, No Iterations 2
smoothSolver:  Solving for h, Initial residual = 0.00468983, Final residual = 0.000381526, No Iterations 2
GAMG:  Solving for p, Initial residual = 0.000230718, Final residual = 9.64351e-06, No Iterations 4
time step continuity errors : sum local = 0.000459655, global = 1.76565e-05, cumulative = -1.10414
ExecutionTime = 0.28 s  ClockTime = 0 s

Time = 93

smoothSolver:  Solving for Uy, Initial residual = 0.0003537, Final residual = 2.65186e-05, No Iterations 2
smoothSolver:  Solving for Uz, Initial residual = 0.00034303, Final residual = 1.62564e-05, No Iterations 2
smoothSolver:  Solving for h, Initial residual = 0.00465481, Final residual = 0.000378686, No Iterations 2
GAMG:  Solving for p, Initial residual = 0.000223188, Final residual = 8.67928e-06, No Iterations 4
time step continuity errors : sum local = 0.000413689, global = 1.52532e-05, cumulative = -1.10412
ExecutionTime = 0.29 s  ClockTime = 0 s

Time = 94

smoothSolver:  Solving for Uy, Initial residual = 0.000346197, Final residual = 2.59579e-05, No Iterations 2
smoothSolver:  Solving for Uz, Initial residual = 0.000336324, Final residual = 1.5931e-05, No Iterations 2
smoothSolver:  Solving for h, Initial residual = 0.00461993, Final residual = 0.000375857, No Iterations 2
GAMG:  Solving for p, Initial residual = 0.000218794, Final residual = 8.76346e-06, No Iterations 4
time step continuity errors : sum local = 0.000417697, global = 1.6516e-05, cumulative = -1.10411
ExecutionTime = 0.29 s  ClockTime = 0 s

Time = 95

smoothSolver:  Solving for Uy, Initial residual = 0.000339048, Final residual = 2.54245e-05, No Iterations 2
smoothSolver:  Solving for Uz, Initial residual = 0.000329749, Final residual = 1.56122e-05, No Iterations 2
smoothSolver:  Solving for h, Initial residual = 0.00458517, Final residual = 0.000373036, No Iterations 2
GAMG:  Solving for p, Initial residual = 0.000214362, Final residual = 9.22099e-06, No Iterations 4
time step continuity errors : sum local = 0.000439516, global = 1.94986e-05, cumulative = -1.10409
ExecutionTime = 0.29 s  ClockTime = 0 s

Time = 96

smoothSolver:  Solving for Uy, Initial residual = 0.000332329, Final residual = 2.4924e-05, No Iterations 2
smoothSolver:  Solving for Uz, Initial residual = 0.000323305, Final residual = 1.53004e-05, No Iterations 2
smoothSolver:  Solving for h, Initial residual = 0.00455045, Final residual = 0.000370217, No Iterations 2
GAMG:  Solving for p, Initial residual = 0.000210149, Final residual = 1.34171e-05, No Iterations 4
time step continuity errors : sum local = 0.000639435, global = 2.50049e-05, cumulative = -1.10406
ExecutionTime = 0.29 s  ClockTime = 0 s

Time = 97

smoothSolver:  Solving for Uy, Initial residual = 0.000325728, Final residual = 2.44324e-05, No Iterations 2
smoothSolver:  Solving for Uz, Initial residual = 0.000316996, Final residual = 1.49957e-05, No Iterations 2
smoothSolver:  Solving for h, Initial residual = 0.00451588, Final residual = 0.000367408, No Iterations 2
GAMG:  Solving for p, Initial residual = 0.000207666, Final residual = 1.34716e-05, No Iterations 4
time step continuity errors : sum local = 0.000642005, global = 2.52539e-05, cumulative = -1.10404
ExecutionTime = 0.3 s  ClockTime = 0 s

Time = 98

smoothSolver:  Solving for Uy, Initial residual = 0.000319276, Final residual = 2.3952e-05, No Iterations 2
smoothSolver:  Solving for Uz, Initial residual = 0.00031081, Final residual = 1.4697e-05, No Iterations 2
smoothSolver:  Solving for h, Initial residual = 0.00448144, Final residual = 0.000364609, No Iterations 2
GAMG:  Solving for p, Initial residual = 0.000203251, Final residual = 1.30597e-05, No Iterations 4
time step continuity errors : sum local = 0.000622384, global = 2.38262e-05, cumulative = -1.10401
ExecutionTime = 0.31 s  ClockTime = 0 s

Time = 99

smoothSolver:  Solving for Uy, Initial residual = 0.000312833, Final residual = 2.34717e-05, No Iterations 2
smoothSolver:  Solving for Uz, Initial residual = 0.000304748, Final residual = 1.44044e-05, No Iterations 2
smoothSolver:  Solving for h, Initial residual = 0.00444715, Final residual = 0.000361822, No Iterations 2
GAMG:  Solving for p, Initial residual = 0.000196838, Final residual = 1.23817e-05, No Iterations 4
time step continuity errors : sum local = 0.000589989, global = 2.19106e-05, cumulative = -1.10399
ExecutionTime = 0.31 s  ClockTime = 0 s

Time = 100

smoothSolver:  Solving for Uy, Initial residual = 0.000306388, Final residual = 2.29907e-05, No Iterations 2
smoothSolver:  Solving for Uz, Initial residual = 0.000298808, Final residual = 1.41177e-05, No Iterations 2
smoothSolver:  Solving for h, Initial residual = 0.00441299, Final residual = 0.000359046, No Iterations 2
GAMG:  Solving for p, Initial residual = 0.000191099, Final residual = 8.43468e-06, No Iterations 4
time step continuity errors : sum local = 0.000401928, global = 1.06515e-05, cumulative = -1.10398
ExecutionTime = 0.31 s  ClockTime = 0 s

Time = 101

smoothSolver:  Solving for Uy, Initial residual = 0.000300162, Final residual = 2.25261e-05, No Iterations 2
smoothSolver:  Solving for Uz, Initial residual = 0.000292988, Final residual = 1.38372e-05, No Iterations 2
smoothSolver:  Solving for h, Initial residual = 0.00437894, Final residual = 0.000356277, No Iterations 2
GAMG:  Solving for p, Initial residual = 0.000185793, Final residual = 7.61708e-06, No Iterations 4
time step continuity errors : sum local = 0.000362957, global = 1.51446e-05, cumulative = -1.10397
ExecutionTime = 0.31 s  ClockTime = 0 s

Time = 102

smoothSolver:  Solving for Uy, Initial residual = 0.000293991, Final residual = 2.20651e-05, No Iterations 2
smoothSolver:  Solving for Uz, Initial residual = 0.000287277, Final residual = 1.35618e-05, No Iterations 2
smoothSolver:  Solving for h, Initial residual = 0.00434497, Final residual = 0.000353514, No Iterations 2
GAMG:  Solving for p, Initial residual = 0.000181845, Final residual = 7.42051e-06, No Iterations 4
time step continuity errors : sum local = 0.000353558, global = 1.50191e-05, cumulative = -1.10395
ExecutionTime = 0.32 s  ClockTime = 0 s

Time = 103

smoothSolver:  Solving for Uy, Initial residual = 0.00028802, Final residual = 2.16193e-05, No Iterations 2
smoothSolver:  Solving for Uz, Initial residual = 0.000281681, Final residual = 1.32921e-05, No Iterations 2
smoothSolver:  Solving for h, Initial residual = 0.00431112, Final residual = 0.00035076, No Iterations 2
GAMG:  Solving for p, Initial residual = 0.000177784, Final residual = 7.52924e-06, No Iterations 4
time step continuity errors : sum local = 0.00035875, global = 1.6201e-05, cumulative = -1.10394
ExecutionTime = 0.32 s  ClockTime = 0 s

Time = 104

smoothSolver:  Solving for Uy, Initial residual = 0.000282293, Final residual = 2.11918e-05, No Iterations 2
smoothSolver:  Solving for Uz, Initial residual = 0.000276194, Final residual = 1.3028e-05, No Iterations 2
smoothSolver:  Solving for h, Initial residual = 0.00427734, Final residual = 0.000348011, No Iterations 2
GAMG:  Solving for p, Initial residual = 0.000174209, Final residual = 7.59483e-06, No Iterations 4
time step continuity errors : sum local = 0.000361857, global = 1.72699e-05, cumulative = -1.10392
ExecutionTime = 0.32 s  ClockTime = 0 s

Time = 105

smoothSolver:  Solving for Uy, Initial residual = 0.000276731, Final residual = 2.07764e-05, No Iterations 2
smoothSolver:  Solving for Uz, Initial residual = 0.000270815, Final residual = 1.27693e-05, No Iterations 2
smoothSolver:  Solving for h, Initial residual = 0.00424364, Final residual = 0.000345269, No Iterations 2
GAMG:  Solving for p, Initial residual = 0.000170347, Final residual = 6.59658e-06, No Iterations 4
time step continuity errors : sum local = 0.000314273, global = 1.35532e-05, cumulative = -1.1039
ExecutionTime = 0.33 s  ClockTime = 0 s

Time = 106

smoothSolver:  Solving for Uy, Initial residual = 0.000271281, Final residual = 2.03693e-05, No Iterations 2
smoothSolver:  Solving for Uz, Initial residual = 0.000265546, Final residual = 1.25162e-05, No Iterations 2
smoothSolver:  Solving for h, Initial residual = 0.00421003, Final residual = 0.000342533, No Iterations 2
GAMG:  Solving for p, Initial residual = 0.000165256, Final residual = 7.3404e-06, No Iterations 4
time step continuity errors : sum local = 0.000349711, global = 9.22572e-06, cumulative = -1.1039
ExecutionTime = 0.33 s  ClockTime = 0 s

Time = 107

smoothSolver:  Solving for Uy, Initial residual = 0.000265785, Final residual = 1.99583e-05, No Iterations 2
smoothSolver:  Solving for Uz, Initial residual = 0.000260378, Final residual = 1.22679e-05, No Iterations 2
smoothSolver:  Solving for h, Initial residual = 0.00417648, Final residual = 0.000339802, No Iterations 2
GAMG:  Solving for p, Initial residual = 0.000161195, Final residual = 6.5499e-06, No Iterations 4
time step continuity errors : sum local = 0.000312037, global = 1.36246e-05, cumulative = -1.10388
ExecutionTime = 0.33 s  ClockTime = 0 s

Time = 108

smoothSolver:  Solving for Uy, Initial residual = 0.000260298, Final residual = 1.95478e-05, No Iterations 2
smoothSolver:  Solving for Uz, Initial residual = 0.000255312, Final residual = 1.20243e-05, No Iterations 2
smoothSolver:  Solving for h, Initial residual = 0.004143, Final residual = 0.000337076, No Iterations 2
GAMG:  Solving for p, Initial residual = 0.00015781, Final residual = 6.56637e-06, No Iterations 4
time step continuity errors : sum local = 0.000312801, global = 1.33686e-05, cumulative = -1.10387
ExecutionTime = 0.33 s  ClockTime = 0 s

Time = 109

smoothSolver:  Solving for Uy, Initial residual = 0.000254993, Final residual = 1.91507e-05, No Iterations 2
smoothSolver:  Solving for Uz, Initial residual = 0.000250352, Final residual = 1.17862e-05, No Iterations 2
smoothSolver:  Solving for h, Initial residual = 0.00410957, Final residual = 0.000334353, No Iterations 2
GAMG:  Solving for p, Initial residual = 0.000155144, Final residual = 6.66754e-06, No Iterations 4
time step continuity errors : sum local = 0.000317641, global = 1.45319e-05, cumulative = -1.10385
ExecutionTime = 0.34 s  ClockTime = 0 s

Time = 110

smoothSolver:  Solving for Uy, Initial residual = 0.000249933, Final residual = 1.87719e-05, No Iterations 2
smoothSolver:  Solving for Uz, Initial residual = 0.000245489, Final residual = 1.1553e-05, No Iterations 2
smoothSolver:  Solving for h, Initial residual = 0.00407619, Final residual = 0.000331634, No Iterations 2
GAMG:  Solving for p, Initial residual = 0.00015216, Final residual = 6.91001e-06, No Iterations 4
time step continuity errors : sum local = 0.000329161, global = 8.85863e-06, cumulative = -1.10385
ExecutionTime = 0.34 s  ClockTime = 0 s

Time = 111

smoothSolver:  Solving for Uy, Initial residual = 0.00024505, Final residual = 1.84066e-05, No Iterations 2
smoothSolver:  Solving for Uz, Initial residual = 0.000240723, Final residual = 1.13249e-05, No Iterations 2
smoothSolver:  Solving for h, Initial residual = 0.00404292, Final residual = 0.000328925, No Iterations 2
GAMG:  Solving for p, Initial residual = 0.00014821, Final residual = 6.26664e-06, No Iterations 4
time step continuity errors : sum local = 0.000298528, global = 1.42074e-05, cumulative = -1.10383
ExecutionTime = 0.34 s  ClockTime = 0 s

Time = 112

smoothSolver:  Solving for Uy, Initial residual = 0.000240185, Final residual = 1.80429e-05, No Iterations 2
smoothSolver:  Solving for Uz, Initial residual = 0.000236041, Final residual = 1.11003e-05, No Iterations 2
smoothSolver:  Solving for h, Initial residual = 0.00400973, Final residual = 0.000326222, No Iterations 2
GAMG:  Solving for p, Initial residual = 0.000144787, Final residual = 6.02535e-06, No Iterations 4
time step continuity errors : sum local = 0.000287019, global = 1.353e-05, cumulative = -1.10382
ExecutionTime = 0.35 s  ClockTime = 0 s

Time = 113

smoothSolver:  Solving for Uy, Initial residual = 0.000235357, Final residual = 1.76816e-05, No Iterations 2
smoothSolver:  Solving for Uz, Initial residual = 0.000231454, Final residual = 1.08804e-05, No Iterations 2
smoothSolver:  Solving for h, Initial residual = 0.00397661, Final residual = 0.000323525, No Iterations 2
GAMG:  Solving for p, Initial residual = 0.000141665, Final residual = 5.89702e-06, No Iterations 4
time step continuity errors : sum local = 0.000280881, global = 1.35033e-05, cumulative = -1.1038
ExecutionTime = 0.35 s  ClockTime = 0 s

Time = 114

smoothSolver:  Solving for Uy, Initial residual = 0.000230625, Final residual = 1.73271e-05, No Iterations 2
smoothSolver:  Solving for Uz, Initial residual = 0.000226961, Final residual = 1.06653e-05, No Iterations 2
smoothSolver:  Solving for h, Initial residual = 0.0039436, Final residual = 0.000320835, No Iterations 2
GAMG:  Solving for p, Initial residual = 0.000138762, Final residual = 5.85556e-06, No Iterations 4
time step continuity errors : sum local = 0.000278919, global = 1.37314e-05, cumulative = -1.10379
ExecutionTime = 0.35 s  ClockTime = 0 s

Time = 115

smoothSolver:  Solving for Uy, Initial residual = 0.000226019, Final residual = 1.69819e-05, No Iterations 2
smoothSolver:  Solving for Uz, Initial residual = 0.000222559, Final residual = 1.04548e-05, No Iterations 2
smoothSolver:  Solving for h, Initial residual = 0.00391068, Final residual = 0.000318152, No Iterations 2
GAMG:  Solving for p, Initial residual = 0.000135737, Final residual = 6.05387e-06, No Iterations 4
time step continuity errors : sum local = 0.000288327, global = 7.75045e-06, cumulative = -1.10378
ExecutionTime = 0.35 s  ClockTime = 0 s

Time = 116

smoothSolver:  Solving for Uy, Initial residual = 0.000221539, Final residual = 1.66462e-05, No Iterations 2
smoothSolver:  Solving for Uz, Initial residual = 0.000218248, Final residual = 1.0249e-05, No Iterations 2
smoothSolver:  Solving for h, Initial residual = 0.00387783, Final residual = 0.000315476, No Iterations 2
GAMG:  Solving for p, Initial residual = 0.000132204, Final residual = 5.50377e-06, No Iterations 4
time step continuity errors : sum local = 0.000262131, global = 1.22815e-05, cumulative = -1.10377
ExecutionTime = 0.36 s  ClockTime = 0 s

Time = 117

smoothSolver:  Solving for Uy, Initial residual = 0.000217119, Final residual = 1.63147e-05, No Iterations 2
smoothSolver:  Solving for Uz, Initial residual = 0.000214012, Final residual = 1.00464e-05, No Iterations 2
smoothSolver:  Solving for h, Initial residual = 0.003845, Final residual = 0.000312801, No Iterations 2
GAMG:  Solving for p, Initial residual = 0.000129324, Final residual = 5.36778e-06, No Iterations 4
time step continuity errors : sum local = 0.000255653, global = 1.20568e-05, cumulative = -1.10376
ExecutionTime = 0.36 s  ClockTime = 0 s

Time = 118

smoothSolver:  Solving for Uy, Initial residual = 0.000212789, Final residual = 1.599e-05, No Iterations 2
smoothSolver:  Solving for Uz, Initial residual = 0.000209859, Final residual = 9.84787e-06, No Iterations 2
smoothSolver:  Solving for h, Initial residual = 0.00381223, Final residual = 0.000310129, No Iterations 2
GAMG:  Solving for p, Initial residual = 0.000126831, Final residual = 5.31108e-06, No Iterations 4
time step continuity errors : sum local = 0.000252925, global = 1.25362e-05, cumulative = -1.10375
ExecutionTime = 0.36 s  ClockTime = 0 s

Time = 119

smoothSolver:  Solving for Uy, Initial residual = 0.000208565, Final residual = 1.56733e-05, No Iterations 2
smoothSolver:  Solving for Uz, Initial residual = 0.000205791, Final residual = 9.65358e-06, No Iterations 2
smoothSolver:  Solving for h, Initial residual = 0.00377951, Final residual = 0.000307462, No Iterations 2
GAMG:  Solving for p, Initial residual = 0.000124448, Final residual = 5.24839e-06, No Iterations 4
time step continuity errors : sum local = 0.00024994, global = 1.29919e-05, cumulative = -1.10373
ExecutionTime = 0.36 s  ClockTime = 0 s

Time = 120

smoothSolver:  Solving for Uy, Initial residual = 0.000204441, Final residual = 1.53644e-05, No Iterations 2
smoothSolver:  Solving for Uz, Initial residual = 0.000201804, Final residual = 9.46341e-06, No Iterations 2
smoothSolver:  Solving for h, Initial residual = 0.00374687, Final residual = 0.0003048, No Iterations 2
GAMG:  Solving for p, Initial residual = 0.000121775, Final residual = 5.13547e-06, No Iterations 4
time step continuity errors : sum local = 0.00024456, global = 1.29719e-05, cumulative = -1.10372
ExecutionTime = 0.37 s  ClockTime = 0 s

Time = 121

smoothSolver:  Solving for Uy, Initial residual = 0.000200397, Final residual = 1.50615e-05, No Iterations 2
smoothSolver:  Solving for Uz, Initial residual = 0.000197897, Final residual = 9.27712e-06, No Iterations 2
smoothSolver:  Solving for h, Initial residual = 0.00371428, Final residual = 0.000302143, No Iterations 2
GAMG:  Solving for p, Initial residual = 0.000118884, Final residual = 4.97858e-06, No Iterations 4
time step continuity errors : sum local = 0.000237068, global = 1.24445e-05, cumulative = -1.10371
ExecutionTime = 0.37 s  ClockTime = 0 s

Time = 122

smoothSolver:  Solving for Uy, Initial residual = 0.000196421, Final residual = 1.47636e-05, No Iterations 2
smoothSolver:  Solving for Uz, Initial residual = 0.000194065, Final residual = 9.09447e-06, No Iterations 2
smoothSolver:  Solving for h, Initial residual = 0.00368176, Final residual = 0.000299492, No Iterations 2
GAMG:  Solving for p, Initial residual = 0.000116082, Final residual = 4.81963e-06, No Iterations 4
time step continuity errors : sum local = 0.000229511, global = 1.17554e-05, cumulative = -1.1037
ExecutionTime = 0.37 s  ClockTime = 0 s

Time = 123

smoothSolver:  Solving for Uy, Initial residual = 0.000192516, Final residual = 1.44712e-05, No Iterations 2
smoothSolver:  Solving for Uz, Initial residual = 0.000190307, Final residual = 8.91537e-06, No Iterations 2
smoothSolver:  Solving for h, Initial residual = 0.00364933, Final residual = 0.000296847, No Iterations 2
GAMG:  Solving for p, Initial residual = 0.000113533, Final residual = 4.68699e-06, No Iterations 4
time step continuity errors : sum local = 0.000223198, global = 1.13541e-05, cumulative = -1.10368
ExecutionTime = 0.39 s  ClockTime = 0 s

Time = 124

smoothSolver:  Solving for Uy, Initial residual = 0.000188694, Final residual = 1.41849e-05, No Iterations 2
smoothSolver:  Solving for Uz, Initial residual = 0.000186623, Final residual = 8.73984e-06, No Iterations 2
smoothSolver:  Solving for h, Initial residual = 0.00361693, Final residual = 0.000294205, No Iterations 2
GAMG:  Solving for p, Initial residual = 0.000111197, Final residual = 4.59835e-06, No Iterations 4
time step continuity errors : sum local = 0.000218976, global = 1.12875e-05, cumulative = -1.10367
ExecutionTime = 0.39 s  ClockTime = 0 s

Time = 125

smoothSolver:  Solving for Uy, Initial residual = 0.00018496, Final residual = 1.39053e-05, No Iterations 2
smoothSolver:  Solving for Uz, Initial residual = 0.000183011, Final residual = 8.56789e-06, No Iterations 2
smoothSolver:  Solving for h, Initial residual = 0.00358462, Final residual = 0.00029157, No Iterations 2
GAMG:  Solving for p, Initial residual = 0.000108946, Final residual = 4.52915e-06, No Iterations 4
time step continuity errors : sum local = 0.000215661, global = 1.13601e-05, cumulative = -1.10366
ExecutionTime = 0.39 s  ClockTime = 0 s

Time = 126

smoothSolver:  Solving for Uy, Initial residual = 0.000181314, Final residual = 1.36322e-05, No Iterations 2
smoothSolver:  Solving for Uz, Initial residual = 0.000179471, Final residual = 8.39945e-06, No Iterations 2
smoothSolver:  Solving for h, Initial residual = 0.00355239, Final residual = 0.000288941, No Iterations 2
GAMG:  Solving for p, Initial residual = 0.000106662, Final residual = 4.43802e-06, No Iterations 4
time step continuity errors : sum local = 0.000211346, global = 1.13537e-05, cumulative = -1.10365
ExecutionTime = 0.4 s  ClockTime = 0 s

Time = 127

smoothSolver:  Solving for Uy, Initial residual = 0.000177743, Final residual = 1.33647e-05, No Iterations 2
smoothSolver:  Solving for Uz, Initial residual = 0.000176, Final residual = 8.23441e-06, No Iterations 2
smoothSolver:  Solving for h, Initial residual = 0.00352021, Final residual = 0.000286318, No Iterations 2
GAMG:  Solving for p, Initial residual = 0.000104333, Final residual = 4.32714e-06, No Iterations 4
time step continuity errors : sum local = 0.000206047, global = 1.11553e-05, cumulative = -1.10364
ExecutionTime = 0.4 s  ClockTime = 0 s

Time = 128

smoothSolver:  Solving for Uy, Initial residual = 0.000174242, Final residual = 1.31023e-05, No Iterations 2
smoothSolver:  Solving for Uz, Initial residual = 0.000172598, Final residual = 8.07266e-06, No Iterations 2
smoothSolver:  Solving for h, Initial residual = 0.00348807, Final residual = 0.000283696, No Iterations 2
GAMG:  Solving for p, Initial residual = 0.000102033, Final residual = 4.20581e-06, No Iterations 4
time step continuity errors : sum local = 0.000200264, global = 1.08153e-05, cumulative = -1.10363
ExecutionTime = 0.4 s  ClockTime = 0 s

Time = 129

smoothSolver:  Solving for Uy, Initial residual = 0.000170809, Final residual = 1.28447e-05, No Iterations 2
smoothSolver:  Solving for Uz, Initial residual = 0.000169261, Final residual = 7.91411e-06, No Iterations 2
smoothSolver:  Solving for h, Initial residual = 0.00345599, Final residual = 0.00028108, No Iterations 2
GAMG:  Solving for p, Initial residual = 9.98187e-05, Final residual = 4.0984e-06, No Iterations 4
time step continuity errors : sum local = 0.000195139, global = 1.05038e-05, cumulative = -1.10362
ExecutionTime = 0.41 s  ClockTime = 0 s

Time = 130

smoothSolver:  Solving for Uy, Initial residual = 0.000167445, Final residual = 1.25924e-05, No Iterations 2
smoothSolver:  Solving for Uz, Initial residual = 0.00016599, Final residual = 7.75873e-06, No Iterations 2
smoothSolver:  Solving for h, Initial residual = 0.00342402, Final residual = 0.000278472, No Iterations 2
GAMG:  Solving for p, Initial residual = 9.77024e-05, Final residual = 4.00873e-06, No Iterations 4
time step continuity errors : sum local = 0.000190849, global = 1.02667e-05, cumulative = -1.10361
ExecutionTime = 0.41 s  ClockTime = 0 s

Time = 131

smoothSolver:  Solving for Uy, Initial residual = 0.000164153, Final residual = 1.23455e-05, No Iterations 2
smoothSolver:  Solving for Uz, Initial residual = 0.000162784, Final residual = 7.60648e-06, No Iterations 2
smoothSolver:  Solving for h, Initial residual = 0.00339215, Final residual = 0.000275873, No Iterations 2
GAMG:  Solving for p, Initial residual = 9.56596e-05, Final residual = 3.92654e-06, No Iterations 4
time step continuity errors : sum local = 0.000186927, global = 1.01827e-05, cumulative = -1.1036
ExecutionTime = 0.41 s  ClockTime = 0 s

Time = 132

smoothSolver:  Solving for Uy, Initial residual = 0.000160933, Final residual = 1.2104e-05, No Iterations 2
smoothSolver:  Solving for Uz, Initial residual = 0.00015964, Final residual = 7.45729e-06, No Iterations 2
smoothSolver:  Solving for h, Initial residual = 0.00336037, Final residual = 0.00027328, No Iterations 2
GAMG:  Solving for p, Initial residual = 9.36542e-05, Final residual = 3.846e-06, No Iterations 4
time step continuity errors : sum local = 0.000183111, global = 1.01024e-05, cumulative = -1.10359
ExecutionTime = 0.41 s  ClockTime = 0 s

Time = 133

smoothSolver:  Solving for Uy, Initial residual = 0.00015778, Final residual = 1.18676e-05, No Iterations 2
smoothSolver:  Solving for Uz, Initial residual = 0.000156557, Final residual = 7.31108e-06, No Iterations 2
smoothSolver:  Solving for h, Initial residual = 0.00332872, Final residual = 0.000270699, No Iterations 2
GAMG:  Solving for p, Initial residual = 9.16764e-05, Final residual = 3.76061e-06, No Iterations 4
time step continuity errors : sum local = 0.000179043, global = 9.95579e-06, cumulative = -1.10358
ExecutionTime = 0.42 s  ClockTime = 0 s

Time = 134

smoothSolver:  Solving for Uy, Initial residual = 0.000154692, Final residual = 1.16359e-05, No Iterations 2
smoothSolver:  Solving for Uz, Initial residual = 0.000153535, Final residual = 7.16778e-06, No Iterations 2
smoothSolver:  Solving for h, Initial residual = 0.00329721, Final residual = 0.000268129, No Iterations 2
GAMG:  Solving for p, Initial residual = 8.97319e-05, Final residual = 3.67069e-06, No Iterations 4
time step continuity errors : sum local = 0.00017475, global = 9.7491e-06, cumulative = -1.10357
ExecutionTime = 0.42 s  ClockTime = 0 s

Time = 135

smoothSolver:  Solving for Uy, Initial residual = 0.000151665, Final residual = 1.14087e-05, No Iterations 2
smoothSolver:  Solving for Uz, Initial residual = 0.000150572, Final residual = 7.02734e-06, No Iterations 2
smoothSolver:  Solving for h, Initial residual = 0.00326586, Final residual = 0.000265571, No Iterations 2
GAMG:  Solving for p, Initial residual = 8.783e-05, Final residual = 3.58234e-06, No Iterations 4
time step continuity errors : sum local = 0.000170547, global = 9.52668e-06, cumulative = -1.10356
ExecutionTime = 0.42 s  ClockTime = 0 s

Time = 136

smoothSolver:  Solving for Uy, Initial residual = 0.000148699, Final residual = 1.1186e-05, No Iterations 2
smoothSolver:  Solving for Uz, Initial residual = 0.000147667, Final residual = 6.8897e-06, No Iterations 2
smoothSolver:  Solving for h, Initial residual = 0.00323467, Final residual = 0.000263026, No Iterations 2
GAMG:  Solving for p, Initial residual = 8.59753e-05, Final residual = 3.50005e-06, No Iterations 4
time step continuity errors : sum local = 0.000166597, global = 9.32094e-06, cumulative = -1.10355
ExecutionTime = 0.43 s  ClockTime = 0 s

Time = 137

smoothSolver:  Solving for Uy, Initial residual = 0.000145793, Final residual = 1.09678e-05, No Iterations 2
smoothSolver:  Solving for Uz, Initial residual = 0.000144819, Final residual = 6.75482e-06, No Iterations 2
smoothSolver:  Solving for h, Initial residual = 0.00320362, Final residual = 0.000260492, No Iterations 2
GAMG:  Solving for p, Initial residual = 8.4166e-05, Final residual = 3.424e-06, No Iterations 4
time step continuity errors : sum local = 0.000163014, global = 9.17596e-06, cumulative = -1.10354
ExecutionTime = 0.43 s  ClockTime = 0 s

Time = 138

smoothSolver:  Solving for Uy, Initial residual = 0.000142947, Final residual = 1.0754e-05, No Iterations 2
smoothSolver:  Solving for Uz, Initial residual = 0.000142027, Final residual = 6.62263e-06, No Iterations 2
[...]
smoothSolver:  Solving for h, Initial residual = 0.00156807, Final residual = 0.000127123, No Iterations 2
GAMG:  Solving for p, Initial residual = 2.27405e-05, Final residual = 8.65423e-07, No Iterations 4
time step continuity errors : sum local = 4.11963e-05, global = 2.85314e-06, cumulative = -1.10319
ExecutionTime = 0.63 s  ClockTime = 0 s

Time = 202

smoothSolver:  Solving for Uy, Initial residual = 4.23193e-05, Final residual = 3.19863e-06, No Iterations 2
smoothSolver:  Solving for Uz, Initial residual = 4.13224e-05, Final residual = 1.89551e-06, No Iterations 2
smoothSolver:  Solving for h, Initial residual = 0.00154831, Final residual = 0.000125514, No Iterations 2
GAMG:  Solving for p, Initial residual = 2.22956e-05, Final residual = 8.48478e-07, No Iterations 4
time step continuity errors : sum local = 4.03513e-05, global = 2.80444e-06, cumulative = -1.10319
ExecutionTime = 0.63 s  ClockTime = 0 s

Time = 203

smoothSolver:  Solving for Uy, Initial residual = 4.15583e-05, Final residual = 3.14147e-06, No Iterations 2
smoothSolver:  Solving for Uz, Initial residual = 4.05428e-05, Final residual = 1.85953e-06, No Iterations 2
smoothSolver:  Solving for h, Initial residual = 0.00152873, Final residual = 0.00012392, No Iterations 2
GAMG:  Solving for p, Initial residual = 2.18592e-05, Final residual = 8.31041e-07, No Iterations 4
time step continuity errors : sum local = 3.95437e-05, global = 2.76141e-06, cumulative = -1.10319
ExecutionTime = 0.64 s  ClockTime = 0 s

Time = 204

smoothSolver:  Solving for Uy, Initial residual = 4.08121e-05, Final residual = 3.08539e-06, No Iterations 2
smoothSolver:  Solving for Uz, Initial residual = 3.97781e-05, Final residual = 1.82425e-06, No Iterations 2
smoothSolver:  Solving for h, Initial residual = 0.00150932, Final residual = 0.00012234, No Iterations 2
GAMG:  Solving for p, Initial residual = 2.14322e-05, Final residual = 8.14636e-07, No Iterations 4
time step continuity errors : sum local = 3.87612e-05, global = 2.70624e-06, cumulative = -1.10319
ExecutionTime = 0.64 s  ClockTime = 0 s

Time = 205

smoothSolver:  Solving for Uy, Initial residual = 4.00806e-05, Final residual = 3.0304e-06, No Iterations 2
smoothSolver:  Solving for Uz, Initial residual = 3.90281e-05, Final residual = 1.78967e-06, No Iterations 2
smoothSolver:  Solving for h, Initial residual = 0.00149009, Final residual = 0.000120774, No Iterations 2
GAMG:  Solving for p, Initial residual = 2.10127e-05, Final residual = 7.98772e-07, No Iterations 4
time step continuity errors : sum local = 3.79791e-05, global = 2.64055e-06, cumulative = -1.10318
ExecutionTime = 0.64 s  ClockTime = 1 s

Time = 206

smoothSolver:  Solving for Uy, Initial residual = 3.93634e-05, Final residual = 2.9765e-06, No Iterations 2
smoothSolver:  Solving for Uz, Initial residual = 3.82925e-05, Final residual = 1.75576e-06, No Iterations 2
smoothSolver:  Solving for h, Initial residual = 0.00147104, Final residual = 0.000119223, No Iterations 2
GAMG:  Solving for p, Initial residual = 2.06038e-05, Final residual = 7.81125e-07, No Iterations 4
time step continuity errors : sum local = 3.71527e-05, global = 2.60872e-06, cumulative = -1.10318
ExecutionTime = 0.64 s  ClockTime = 1 s

Time = 207

smoothSolver:  Solving for Uy, Initial residual = 3.86606e-05, Final residual = 2.92372e-06, No Iterations 2
smoothSolver:  Solving for Uz, Initial residual = 3.7571e-05, Final residual = 1.72253e-06, No Iterations 2
smoothSolver:  Solving for h, Initial residual = 0.00145216, Final residual = 0.000117686, No Iterations 2
GAMG:  Solving for p, Initial residual = 2.02008e-05, Final residual = 7.65089e-07, No Iterations 4
time step continuity errors : sum local = 3.64206e-05, global = 2.54937e-06, cumulative = -1.10318
ExecutionTime = 0.65 s  ClockTime = 1 s

Time = 208

smoothSolver:  Solving for Uy, Initial residual = 3.79719e-05, Final residual = 2.87198e-06, No Iterations 2
smoothSolver:  Solving for Uz, Initial residual = 3.68634e-05, Final residual = 1.68998e-06, No Iterations 2
smoothSolver:  Solving for h, Initial residual = 0.00143345, Final residual = 0.000116163, No Iterations 2
GAMG:  Solving for p, Initial residual = 1.98088e-05, Final residual = 7.50817e-07, No Iterations 4
time step continuity errors : sum local = 3.57165e-05, global = 2.50223e-06, cumulative = -1.10317
ExecutionTime = 0.65 s  ClockTime = 1 s

Time = 209

smoothSolver:  Solving for Uy, Initial residual = 3.72971e-05, Final residual = 2.82125e-06, No Iterations 2
smoothSolver:  Solving for Uz, Initial residual = 3.61693e-05, Final residual = 1.65809e-06, No Iterations 2
smoothSolver:  Solving for h, Initial residual = 0.00141492, Final residual = 0.000114655, No Iterations 2
GAMG:  Solving for p, Initial residual = 1.94246e-05, Final residual = 7.35521e-07, No Iterations 4
time step continuity errors : sum local = 3.49914e-05, global = 2.45422e-06, cumulative = -1.10317
ExecutionTime = 0.65 s  ClockTime = 1 s

Time = 210

smoothSolver:  Solving for Uy, Initial residual = 3.66353e-05, Final residual = 2.77149e-06, No Iterations 2
smoothSolver:  Solving for Uz, Initial residual = 3.54886e-05, Final residual = 1.62687e-06, No Iterations 2
smoothSolver:  Solving for h, Initial residual = 0.00139655, Final residual = 0.00011316, No Iterations 2
GAMG:  Solving for p, Initial residual = 1.90483e-05, Final residual = 7.20803e-07, No Iterations 4
time step continuity errors : sum local = 3.42884e-05, global = 2.40438e-06, cumulative = -1.10317
ExecutionTime = 0.65 s  ClockTime = 1 s

Time = 211

smoothSolver:  Solving for Uy, Initial residual = 3.59861e-05, Final residual = 2.72269e-06, No Iterations 2
smoothSolver:  Solving for Uz, Initial residual = 3.4821e-05, Final residual = 1.59632e-06, No Iterations 2
smoothSolver:  Solving for h, Initial residual = 0.00137837, Final residual = 0.000111681, No Iterations 2
GAMG:  Solving for p, Initial residual = 1.86787e-05, Final residual = 7.06517e-07, No Iterations 4
time step continuity errors : sum local = 3.3603e-05, global = 2.34466e-06, cumulative = -1.10317
ExecutionTime = 0.66 s  ClockTime = 1 s

Time = 212

smoothSolver:  Solving for Uy, Initial residual = 3.53498e-05, Final residual = 2.67491e-06, No Iterations 2
smoothSolver:  Solving for Uz, Initial residual = 3.41663e-05, Final residual = 1.56639e-06, No Iterations 2
smoothSolver:  Solving for h, Initial residual = 0.00136037, Final residual = 0.000110216, No Iterations 2
GAMG:  Solving for p, Initial residual = 1.83184e-05, Final residual = 6.92013e-07, No Iterations 4
time step continuity errors : sum local = 3.29551e-05, global = 2.31964e-06, cumulative = -1.10317
ExecutionTime = 0.66 s  ClockTime = 1 s

Time = 213

smoothSolver:  Solving for Uy, Initial residual = 3.47256e-05, Final residual = 2.62806e-06, No Iterations 2
smoothSolver:  Solving for Uz, Initial residual = 3.3524e-05, Final residual = 1.53705e-06, No Iterations 2
smoothSolver:  Solving for h, Initial residual = 0.00134255, Final residual = 0.000108766, No Iterations 2
GAMG:  Solving for p, Initial residual = 1.79654e-05, Final residual = 6.78447e-07, No Iterations 4
time step continuity errors : sum local = 3.22639e-05, global = 2.26534e-06, cumulative = -1.10316
ExecutionTime = 0.66 s  ClockTime = 1 s

Time = 214

smoothSolver:  Solving for Uy, Initial residual = 3.41138e-05, Final residual = 2.58213e-06, No Iterations 2
smoothSolver:  Solving for Uz, Initial residual = 3.28942e-05, Final residual = 1.50827e-06, No Iterations 2
smoothSolver:  Solving for h, Initial residual = 0.00132491, Final residual = 0.000107331, No Iterations 2
GAMG:  Solving for p, Initial residual = 1.76192e-05, Final residual = 6.64159e-07, No Iterations 4
time step continuity errors : sum local = 3.15998e-05, global = 2.23439e-06, cumulative = -1.10316
ExecutionTime = 0.66 s  ClockTime = 1 s

Time = 215

smoothSolver:  Solving for Uy, Initial residual = 3.35135e-05, Final residual = 2.53705e-06, No Iterations 2
smoothSolver:  Solving for Uz, Initial residual = 3.22766e-05, Final residual = 1.48004e-06, No Iterations 2
smoothSolver:  Solving for h, Initial residual = 0.00130745, Final residual = 0.000105911, No Iterations 2
GAMG:  Solving for p, Initial residual = 1.72798e-05, Final residual = 6.51605e-07, No Iterations 4
time step continuity errors : sum local = 3.10075e-05, global = 2.2052e-06, cumulative = -1.10316
ExecutionTime = 0.67 s  ClockTime = 1 s

Time = 216

smoothSolver:  Solving for Uy, Initial residual = 3.29253e-05, Final residual = 2.49288e-06, No Iterations 2
smoothSolver:  Solving for Uz, Initial residual = 3.16708e-05, Final residual = 1.45237e-06, No Iterations 2
smoothSolver:  Solving for h, Initial residual = 0.00129016, Final residual = 0.000104504, No Iterations 2
GAMG:  Solving for p, Initial residual = 1.69481e-05, Final residual = 6.38735e-07, No Iterations 4
time step continuity errors : sum local = 3.03903e-05, global = 2.16549e-06, cumulative = -1.10316
ExecutionTime = 0.67 s  ClockTime = 1 s

Time = 217

smoothSolver:  Solving for Uy, Initial residual = 3.23492e-05, Final residual = 2.44973e-06, No Iterations 2
smoothSolver:  Solving for Uz, Initial residual = 3.10767e-05, Final residual = 1.42522e-06, No Iterations 2
smoothSolver:  Solving for h, Initial residual = 0.00127306, Final residual = 0.000103112, No Iterations 2
GAMG:  Solving for p, Initial residual = 1.66213e-05, Final residual = 6.25928e-07, No Iterations 4
time step continuity errors : sum local = 2.97609e-05, global = 2.12862e-06, cumulative = -1.10315
ExecutionTime = 0.67 s  ClockTime = 1 s

Time = 218

smoothSolver:  Solving for Uy, Initial residual = 3.17851e-05, Final residual = 2.40748e-06, No Iterations 2
smoothSolver:  Solving for Uz, Initial residual = 3.0494e-05, Final residual = 1.3986e-06, No Iterations 2
smoothSolver:  Solving for h, Initial residual = 0.00125612, Final residual = 0.000101734, No Iterations 2
GAMG:  Solving for p, Initial residual = 1.6302e-05, Final residual = 6.13995e-07, No Iterations 4
time step continuity errors : sum local = 2.92019e-05, global = 2.07044e-06, cumulative = -1.10315
ExecutionTime = 0.68 s  ClockTime = 1 s

Time = 219

smoothSolver:  Solving for Uy, Initial residual = 3.12325e-05, Final residual = 2.36612e-06, No Iterations 2
smoothSolver:  Solving for Uz, Initial residual = 2.99226e-05, Final residual = 1.37249e-06, No Iterations 2
smoothSolver:  Solving for h, Initial residual = 0.00123934, Final residual = 0.00010037, No Iterations 2
GAMG:  Solving for p, Initial residual = 1.59898e-05, Final residual = 6.00815e-07, No Iterations 4
time step continuity errors : sum local = 2.85743e-05, global = 2.0605e-06, cumulative = -1.10315
ExecutionTime = 0.68 s  ClockTime = 1 s

Time = 220

smoothSolver:  Solving for Uy, Initial residual = 3.06909e-05, Final residual = 2.32558e-06, No Iterations 2
smoothSolver:  Solving for Uz, Initial residual = 2.93624e-05, Final residual = 1.34689e-06, No Iterations 2
smoothSolver:  Solving for h, Initial residual = 0.00122274, Final residual = 9.90202e-05, No Iterations 2
GAMG:  Solving for p, Initial residual = 1.56832e-05, Final residual = 5.89572e-07, No Iterations 4
time step continuity errors : sum local = 2.80469e-05, global = 2.01257e-06, cumulative = -1.10315
ExecutionTime = 0.68 s  ClockTime = 1 s

Time = 221

smoothSolver:  Solving for Uy, Initial residual = 3.01604e-05, Final residual = 2.28585e-06, No Iterations 2
smoothSolver:  Solving for Uz, Initial residual = 2.88134e-05, Final residual = 1.32178e-06, No Iterations 2
smoothSolver:  Solving for h, Initial residual = 0.00120631, Final residual = 9.76835e-05, No Iterations 2
GAMG:  Solving for p, Initial residual = 1.53836e-05, Final residual = 5.78372e-07, No Iterations 4
time step continuity errors : sum local = 2.7517e-05, global = 1.9633e-06, cumulative = -1.10315
ExecutionTime = 0.69 s  ClockTime = 1 s

Time = 222

smoothSolver:  Solving for Uy, Initial residual = 2.96406e-05, Final residual = 2.24692e-06, No Iterations 2
smoothSolver:  Solving for Uz, Initial residual = 2.82754e-05, Final residual = 1.29716e-06, No Iterations 2
smoothSolver:  Solving for h, Initial residual = 0.00119004, Final residual = 9.63611e-05, No Iterations 2
GAMG:  Solving for p, Initial residual = 1.50894e-05, Final residual = 5.66893e-07, No Iterations 4
time step continuity errors : sum local = 2.69762e-05, global = 1.91675e-06, cumulative = -1.10314
ExecutionTime = 0.69 s  ClockTime = 1 s

Time = 223

smoothSolver:  Solving for Uy, Initial residual = 2.91307e-05, Final residual = 2.20874e-06, No Iterations 2
smoothSolver:  Solving for Uz, Initial residual = 2.77485e-05, Final residual = 1.273e-06, No Iterations 2
smoothSolver:  Solving for h, Initial residual = 0.00117396, Final residual = 9.50531e-05, No Iterations 2
GAMG:  Solving for p, Initial residual = 1.48012e-05, Final residual = 5.54667e-07, No Iterations 4
time step continuity errors : sum local = 2.63864e-05, global = 1.89324e-06, cumulative = -1.10314
ExecutionTime = 0.69 s  ClockTime = 1 s

Time = 224

smoothSolver:  Solving for Uy, Initial residual = 2.86309e-05, Final residual = 2.17139e-06, No Iterations 2
smoothSolver:  Solving for Uz, Initial residual = 2.72322e-05, Final residual = 1.24932e-06, No Iterations 2
smoothSolver:  Solving for h, Initial residual = 0.00115804, Final residual = 9.3759e-05, No Iterations 2
GAMG:  Solving for p, Initial residual = 1.45189e-05, Final residual = 5.43766e-07, No Iterations 4
time step continuity errors : sum local = 2.5872e-05, global = 1.85733e-06, cumulative = -1.10314
ExecutionTime = 0.69 s  ClockTime = 1 s

Time = 225

smoothSolver:  Solving for Uy, Initial residual = 2.81417e-05, Final residual = 2.13477e-06, No Iterations 2
smoothSolver:  Solving for Uz, Initial residual = 2.67259e-05, Final residual = 1.22608e-06, No Iterations 2
smoothSolver:  Solving for h, Initial residual = 0.0011423, Final residual = 9.24793e-05, No Iterations 2
GAMG:  Solving for p, Initial residual = 1.42423e-05, Final residual = 5.33242e-07, No Iterations 4
time step continuity errors : sum local = 2.53765e-05, global = 1.83564e-06, cumulative = -1.10314
ExecutionTime = 0.7 s  ClockTime = 1 s

Time = 226

smoothSolver:  Solving for Uy, Initial residual = 2.76626e-05, Final residual = 2.09883e-06, No Iterations 2
smoothSolver:  Solving for Uz, Initial residual = 2.62293e-05, Final residual = 1.2033e-06, No Iterations 2
smoothSolver:  Solving for h, Initial residual = 0.00112672, Final residual = 9.12132e-05, No Iterations 2
GAMG:  Solving for p, Initial residual = 1.39729e-05, Final residual = 5.2318e-07, No Iterations 4
time step continuity errors : sum local = 2.48953e-05, global = 1.8133e-06, cumulative = -1.10314
ExecutionTime = 0.7 s  ClockTime = 1 s

Time = 227

smoothSolver:  Solving for Uy, Initial residual = 2.71929e-05, Final residual = 2.06366e-06, No Iterations 2
smoothSolver:  Solving for Uz, Initial residual = 2.57422e-05, Final residual = 1.18095e-06, No Iterations 2
smoothSolver:  Solving for h, Initial residual = 0.00111132, Final residual = 8.99613e-05, No Iterations 2
GAMG:  Solving for p, Initial residual = 1.37073e-05, Final residual = 5.13674e-07, No Iterations 4
time step continuity errors : sum local = 2.44565e-05, global = 1.74665e-06, cumulative = -1.10314
ExecutionTime = 0.7 s  ClockTime = 1 s

Time = 228

smoothSolver:  Solving for Uy, Initial residual = 2.67322e-05, Final residual = 2.02918e-06, No Iterations 2
smoothSolver:  Solving for Uz, Initial residual = 2.52645e-05, Final residual = 1.15904e-06, No Iterations 2
smoothSolver:  Solving for h, Initial residual = 0.00109608, Final residual = 8.87224e-05, No Iterations 2
GAMG:  Solving for p, Initial residual = 1.34478e-05, Final residual = 5.03574e-07, No Iterations 4
time step continuity errors : sum local = 2.39554e-05, global = 1.70978e-06, cumulative = -1.10313
ExecutionTime = 0.71 s  ClockTime = 1 s

Time = 229

smoothSolver:  Solving for Uy, Initial residual = 2.62807e-05, Final residual = 1.99537e-06, No Iterations 2
smoothSolver:  Solving for Uz, Initial residual = 2.47959e-05, Final residual = 1.13756e-06, No Iterations 2
smoothSolver:  Solving for h, Initial residual = 0.00108101, Final residual = 8.74975e-05, No Iterations 2
GAMG:  Solving for p, Initial residual = 1.31926e-05, Final residual = 4.92665e-07, No Iterations 4
time step continuity errors : sum local = 2.34369e-05, global = 1.68417e-06, cumulative = -1.10313
ExecutionTime = 0.71 s  ClockTime = 1 s

Time = 230

smoothSolver:  Solving for Uy, Initial residual = 2.58386e-05, Final residual = 1.9622e-06, No Iterations 2
smoothSolver:  Solving for Uz, Initial residual = 2.43363e-05, Final residual = 1.11649e-06, No Iterations 2
smoothSolver:  Solving for h, Initial residual = 0.00106611, Final residual = 8.62861e-05, No Iterations 2
GAMG:  Solving for p, Initial residual = 1.29432e-05, Final residual = 4.83833e-07, No Iterations 4
time step continuity errors : sum local = 2.30028e-05, global = 1.65571e-06, cumulative = -1.10313
ExecutionTime = 0.71 s  ClockTime = 1 s

Time = 231

smoothSolver:  Solving for Uy, Initial residual = 2.54049e-05, Final residual = 1.92975e-06, No Iterations 2
smoothSolver:  Solving for Uz, Initial residual = 2.38855e-05, Final residual = 1.09582e-06, No Iterations 2
smoothSolver:  Solving for h, Initial residual = 0.00105137, Final residual = 8.50885e-05, No Iterations 2
GAMG:  Solving for p, Initial residual = 1.26988e-05, Final residual = 4.74525e-07, No Iterations 4
time step continuity errors : sum local = 2.25691e-05, global = 1.61581e-06, cumulative = -1.10313
ExecutionTime = 0.72 s  ClockTime = 1 s

Time = 232

smoothSolver:  Solving for Uy, Initial residual = 2.49794e-05, Final residual = 1.89796e-06, No Iterations 2
smoothSolver:  Solving for Uz, Initial residual = 2.34434e-05, Final residual = 1.07556e-06, No Iterations 2
smoothSolver:  Solving for h, Initial residual = 0.0010368, Final residual = 8.39047e-05, No Iterations 2
GAMG:  Solving for p, Initial residual = 1.24602e-05, Final residual = 4.6497e-07, No Iterations 4
time step continuity errors : sum local = 2.21339e-05, global = 1.60132e-06, cumulative = -1.10313
ExecutionTime = 0.72 s  ClockTime = 1 s

Time = 233

smoothSolver:  Solving for Uy, Initial residual = 2.45622e-05, Final residual = 1.86676e-06, No Iterations 2
smoothSolver:  Solving for Uz, Initial residual = 2.30098e-05, Final residual = 1.05568e-06, No Iterations 2
smoothSolver:  Solving for h, Initial residual = 0.0010224, Final residual = 8.27342e-05, No Iterations 2
GAMG:  Solving for p, Initial residual = 1.22255e-05, Final residual = 4.56563e-07, No Iterations 4
time step continuity errors : sum local = 2.1716e-05, global = 1.56248e-06, cumulative = -1.10313
ExecutionTime = 0.72 s  ClockTime = 1 s

Time = 234

smoothSolver:  Solving for Uy, Initial residual = 2.41546e-05, Final residual = 1.83614e-06, No Iterations 2
smoothSolver:  Solving for Uz, Initial residual = 2.25845e-05, Final residual = 1.0362e-06, No Iterations 2
smoothSolver:  Solving for h, Initial residual = 0.00100816, Final residual = 8.15771e-05, No Iterations 2
GAMG:  Solving for p, Initial residual = 1.19938e-05, Final residual = 4.47087e-07, No Iterations 4
time step continuity errors : sum local = 2.12549e-05, global = 1.54014e-06, cumulative = -1.10312
ExecutionTime = 0.72 s  ClockTime = 1 s

Time = 235

smoothSolver:  Solving for Uy, Initial residual = 2.37548e-05, Final residual = 1.80615e-06, No Iterations 2
smoothSolver:  Solving for Uz, Initial residual = 2.21673e-05, Final residual = 1.01709e-06, No Iterations 2
smoothSolver:  Solving for h, Initial residual = 0.000994075, Final residual = 8.04329e-05, No Iterations 2
GAMG:  Solving for p, Initial residual = 1.17681e-05, Final residual = 4.38554e-07, No Iterations 4
time step continuity errors : sum local = 2.08702e-05, global = 1.50631e-06, cumulative = -1.10312
ExecutionTime = 0.73 s  ClockTime = 1 s


SIMPLE solution converged in 235 iterations

End

