/*---------------------------------------------------------------------------*\
  =========                 |
  \\      /  F ield         | OpenFOAM: The Open Source CFD Toolbox
   \\    /   O peration     | Website:  https://openfoam.org
    \\  /    A nd           | Version:  7
     \\/     M anipulation  |
\*---------------------------------------------------------------------------*/
Build  : 7-3bcbaf946ae9
Exec   : polymSimpleFoam -parallel
Date   : May 30 2022
Time   : 21:08:12
Host   : "calculus"
PID    : 215415
I/O    : uncollated
Case   : /home/andres/OpenFOAM/andres-7/run/cases/pelletExtruder/nonSRF
nProcs : 6
Slaves : 
5
(
"calculus.215416"
"calculus.215417"
"calculus.215418"
"calculus.215419"
"calculus.215420"
)

Pstream initialized with:
    floatTransfer      : 0
    nProcsSimpleSum    : 0
    commsType          : nonBlocking
    polling iterations : 0
sigFpe : Enabling floating point exception trapping (FOAM_SIGFPE).
fileModificationChecking : Monitoring run-time modified files using timeStampMaster (fileModificationSkew 10)
allowSystemOperations : Allowing user-supplied system call operations

// * * * * * * * * * * * * * * * * * * * * * * * * * * * * * * * * * * * * * //
Create time

Create mesh for time = 0


SIMPLE: Convergence criteria found
        p: tolerance 1e-06
        U: tolerance 1e-05
        h: tolerance 1e-07

Reading thermophysical properties

Selecting thermodynamics package 
{
    type            heRhoThermo;
    mixture         pureMixture;
    transport       polymerKWLF;
    thermo          hPolymer;
    equationOfState rhoPolymerEOS;
    specie          specie;
    energy          sensibleEnthalpy;
}

Reading field U

Reading/calculating face flux field phi

pressureControl
    pMax 2e+07
    pMin 99000

Creating turbulence model

Selecting turbulence model type laminar
Selecting laminar stress model generalizedNewtonian
Selecting generalized Newtonian model CrossPowerLaw
No MRF models present

Creating finite volume options from "constant/fvOptions"

Selecting finite volume options model type limitTemperature
    Source: limitT
    - selecting all cells
    - selected 202779 cell(s) with volume 9.98724e-07
Courant Number mean: 0 max: 0

Starting time loop



Time = 1

Courant Number mean: 0 max: 0
smoothSolver:  Solving for Ux, Initial residual = 1, Final residual = 0.00763384, No Iterations 5
smoothSolver:  Solving for Uy, Initial residual = 1, Final residual = 0.000329817, No Iterations 1
smoothSolver:  Solving for Uz, Initial residual = 1, Final residual = 0.00740705, No Iterations 5
smoothSolver:  Solving for h, Initial residual = 1, Final residual = 0.00805624, No Iterations 16
GAMG:  Solving for p, Initial residual = 1, Final residual = 0.0074146, No Iterations 8
GAMG:  Solving for p, Initial residual = 0.591801, Final residual = 0.00062528, No Iterations 2
GAMG:  Solving for p, Initial residual = 0.0394453, Final residual = 0.000106186, No Iterations 2
time step continuity errors : sum local = 2.54498, global = 0.101524, cumulative = 0.101524
pressureControl: p max 8.39077e+13
ExecutionTime = 0.43 s  ClockTime = 0 s

Time = 2

Courant Number mean: 32462.4 max: 3.08e+07
smoothSolver:  Solving for Ux, Initial residual = 0.386758, Final residual = 0.00382976, No Iterations 7
smoothSolver:  Solving for Uy, Initial residual = 0.0104311, Final residual = 8.57281e-05, No Iterations 7
smoothSolver:  Solving for Uz, Initial residual = 0.397532, Final residual = 0.00394604, No Iterations 7
smoothSolver:  Solving for h, Initial residual = 0.165674, Final residual = 0.00140503, No Iterations 18
GAMG:  Solving for p, Initial residual = 1, Final residual = 0.00629083, No Iterations 4
GAMG:  Solving for p, Initial residual = 0.246408, Final residual = 0.00044594, No Iterations 2
GAMG:  Solving for p, Initial residual = 0.0224649, Final residual = 8.64708e-05, No Iterations 3
time step continuity errors : sum local = 0.834759, global = 0.02104, cumulative = 0.122564
pressureControl: p max 1.15149e+08
ExecutionTime = 0.76 s  ClockTime = 1 s

Time = 3

Courant Number mean: 33614.1 max: 1.94944e+08
smoothSolver:  Solving for Ux, Initial residual = 0.18892, Final residual = 0.00156438, No Iterations 11
smoothSolver:  Solving for Uy, Initial residual = 0.00504675, Final residual = 4.07391e-05, No Iterations 10
smoothSolver:  Solving for Uz, Initial residual = 0.136388, Final residual = 0.00108642, No Iterations 11
smoothSolver:  Solving for h, Initial residual = 0.0963707, Final residual = 0.000779574, No Iterations 20
GAMG:  Solving for p, Initial residual = 0.391635, Final residual = 0.00326838, No Iterations 2
GAMG:  Solving for p, Initial residual = 0.0673332, Final residual = 0.000582534, No Iterations 2
GAMG:  Solving for p, Initial residual = 0.0121636, Final residual = 0.000115596, No Iterations 2
time step continuity errors : sum local = 5.01351, global = 0.00685758, cumulative = 0.129421
pressureControl: p max 8.1718e+08
pressureControl: p min -31552.8
ExecutionTime = 1.08 s  ClockTime = 1 s

Time = 4

Courant Number mean: 35091.6 max: 9.06043e+08
smoothSolver:  Solving for Ux, Initial residual = 0.0592267, Final residual = 0.000479579, No Iterations 12
smoothSolver:  Solving for Uy, Initial residual = 0.00380916, Final residual = 3.07248e-05, No Iterations 11
smoothSolver:  Solving for Uz, Initial residual = 0.120672, Final residual = 0.00096583, No Iterations 12
smoothSolver:  Solving for h, Initial residual = 0.0757493, Final residual = 0.000627309, No Iterations 20
GAMG:  Solving for p, Initial residual = 0.264505, Final residual = 0.00237787, No Iterations 1
GAMG:  Solving for p, Initial residual = 0.0696904, Final residual = 0.00015992, No Iterations 3
GAMG:  Solving for p, Initial residual = 0.00926376, Final residual = 1.6038e-05, No Iterations 2
time step continuity errors : sum local = 1.48327, global = -0.0596062, cumulative = 0.0698149
pressureControl: p max 1.15984e+08
pressureControl: p min -1.98364e+06
ExecutionTime = 1.41 s  ClockTime = 1 s

Time = 5

Courant Number mean: 35237 max: 2.2052e+09
smoothSolver:  Solving for Ux, Initial residual = 0.0792548, Final residual = 0.000643926, No Iterations 13
smoothSolver:  Solving for Uy, Initial residual = 0.0031688, Final residual = 2.64186e-05, No Iterations 12
smoothSolver:  Solving for Uz, Initial residual = 0.088055, Final residual = 0.000698023, No Iterations 13
smoothSolver:  Solving for h, Initial residual = 0.0654533, Final residual = 0.000586397, No Iterations 20
GAMG:  Solving for p, Initial residual = 0.180693, Final residual = 0.000797935, No Iterations 2
GAMG:  Solving for p, Initial residual = 0.0224887, Final residual = 0.000121177, No Iterations 2
GAMG:  Solving for p, Initial residual = 0.00325077, Final residual = 2.0871e-05, No Iterations 2
time step continuity errors : sum local = 2.44678, global = -0.0801734, cumulative = -0.0103585
pressureControl: p max 1.81677e+08
pressureControl: p min -1.22177e+06
ExecutionTime = 1.81 s  ClockTime = 2 s

Time = 6

Courant Number mean: 35697.7 max: 3.59691e+09
smoothSolver:  Solving for Ux, Initial residual = 0.0447365, Final residual = 0.000374553, No Iterations 13
smoothSolver:  Solving for Uy, Initial residual = 0.00308568, Final residual = 2.71121e-05, No Iterations 12
smoothSolver:  Solving for Uz, Initial residual = 0.0470906, Final residual = 0.000387011, No Iterations 13
smoothSolver:  Solving for h, Initial residual = 0.0573442, Final residual = 0.000533522, No Iterations 20
GAMG:  Solving for p, Initial residual = 0.138694, Final residual = 0.000762087, No Iterations 2
GAMG:  Solving for p, Initial residual = 0.0179071, Final residual = 0.000116532, No Iterations 2
GAMG:  Solving for p, Initial residual = 0.00279165, Final residual = 1.40591e-05, No Iterations 2
time step continuity errors : sum local = 1.42617, global = -0.0350105, cumulative = -0.045369
pressureControl: p max 1.09941e+08
pressureControl: p min -938454
ExecutionTime = 2.13 s  ClockTime = 2 s

Time = 7

Courant Number mean: 35435.8 max: 3.1154e+09
smoothSolver:  Solving for Ux, Initial residual = 0.0464031, Final residual = 0.000418884, No Iterations 13
smoothSolver:  Solving for Uy, Initial residual = 0.00294616, Final residual = 2.75852e-05, No Iterations 12
smoothSolver:  Solving for Uz, Initial residual = 0.0620968, Final residual = 0.000547016, No Iterations 13
smoothSolver:  Solving for h, Initial residual = 0.049293, Final residual = 0.000337412, No Iterations 22
GAMG:  Solving for p, Initial residual = 0.0976822, Final residual = 0.00069854, No Iterations 2
GAMG:  Solving for p, Initial residual = 0.0142375, Final residual = 0.000100387, No Iterations 2
GAMG:  Solving for p, Initial residual = 0.0024165, Final residual = 1.68977e-05, No Iterations 2
time step continuity errors : sum local = 1.43853, global = -0.0511797, cumulative = -0.0965486
pressureControl: p max 1.29745e+08
pressureControl: p min -782988
ExecutionTime = 2.46 s  ClockTime = 2 s

Time = 8

Courant Number mean: 35170.1 max: 1.70631e+09
smoothSolver:  Solving for Ux, Initial residual = 0.0376998, Final residual = 0.000338043, No Iterations 13
smoothSolver:  Solving for Uy, Initial residual = 0.00318022, Final residual = 2.97213e-05, No Iterations 12
smoothSolver:  Solving for Uz, Initial residual = 0.0632751, Final residual = 0.000559011, No Iterations 13
smoothSolver:  Solving for h, Initial residual = 0.043798, Final residual = 0.000326479, No Iterations 22
GAMG:  Solving for p, Initial residual = 0.0780091, Final residual = 0.000174703, No Iterations 3
GAMG:  Solving for p, Initial residual = 0.0123838, Final residual = 2.39831e-05, No Iterations 2
GAMG:  Solving for p, Initial residual = 0.00124211, Final residual = 1.02462e-05, No Iterations 2
time step continuity errors : sum local = 0.672131, global = -0.0296264, cumulative = -0.126175
pressureControl: p max 1.22574e+08
pressureControl: p min -648793
ExecutionTime = 2.8 s  ClockTime = 3 s

Time = 9

Courant Number mean: 35012.4 max: 1.28893e+09
smoothSolver:  Solving for Ux, Initial residual = 0.0412799, Final residual = 0.000370969, No Iterations 13
smoothSolver:  Solving for Uy, Initial residual = 0.00327866, Final residual = 3.0574e-05, No Iterations 12
smoothSolver:  Solving for Uz, Initial residual = 0.0664494, Final residual = 0.000591541, No Iterations 13
smoothSolver:  Solving for h, Initial residual = 0.0394148, Final residual = 0.00031436, No Iterations 22
GAMG:  Solving for p, Initial residual = 0.061439, Final residual = 0.000193744, No Iterations 3
GAMG:  Solving for p, Initial residual = 0.0121352, Final residual = 3.0707e-05, No Iterations 2
GAMG:  Solving for p, Initial residual = 0.00121648, Final residual = 9.32452e-06, No Iterations 2
time step continuity errors : sum local = 0.469742, global = -0.0159438, cumulative = -0.142119
pressureControl: p max 1.2093e+08
pressureControl: p min -478499
ExecutionTime = 3.13 s  ClockTime = 3 s

Time = 10

Courant Number mean: 34823.9 max: 3.50004e+08
smoothSolver:  Solving for Ux, Initial residual = 0.0586932, Final residual = 0.000524268, No Iterations 13
smoothSolver:  Solving for Uy, Initial residual = 0.00344003, Final residual = 3.16938e-05, No Iterations 12
smoothSolver:  Solving for Uz, Initial residual = 0.0626756, Final residual = 0.000556332, No Iterations 13
smoothSolver:  Solving for h, Initial residual = 0.0354282, Final residual = 0.000301127, No Iterations 22
GAMG:  Solving for p, Initial residual = 0.0580906, Final residual = 0.00026571, No Iterations 3
GAMG:  Solving for p, Initial residual = 0.0156828, Final residual = 4.62401e-05, No Iterations 2
GAMG:  Solving for p, Initial residual = 0.00156342, Final residual = 1.00085e-05, No Iterations 2
time step continuity errors : sum local = 0.322943, global = -0.0104343, cumulative = -0.152553
pressureControl: p max 1.19907e+08
pressureControl: p min -431032
ExecutionTime = 3.47 s  ClockTime = 4 s

Time = 11

Courant Number mean: 34753.3 max: 2.35863e+08
smoothSolver:  Solving for Ux, Initial residual = 0.0652203, Final residual = 0.000576302, No Iterations 13
smoothSolver:  Solving for Uy, Initial residual = 0.00357633, Final residual = 3.24547e-05, No Iterations 12
smoothSolver:  Solving for Uz, Initial residual = 0.0569717, Final residual = 0.000502049, No Iterations 13
smoothSolver:  Solving for h, Initial residual = 0.0326594, Final residual = 0.000287409, No Iterations 22
GAMG:  Solving for p, Initial residual = 0.0545063, Final residual = 0.000298498, No Iterations 3
GAMG:  Solving for p, Initial residual = 0.0184925, Final residual = 5.57183e-05, No Iterations 2
GAMG:  Solving for p, Initial residual = 0.0018069, Final residual = 1.18678e-05, No Iterations 2
time step continuity errors : sum local = 0.290742, global = -0.00686771, cumulative = -0.159421
pressureControl: p max 1.17598e+08
pressureControl: p min -317452
ExecutionTime = 3.8 s  ClockTime = 4 s

Time = 12

Courant Number mean: 34721.1 max: 1.55724e+08
smoothSolver:  Solving for Ux, Initial residual = 0.0645927, Final residual = 0.000563678, No Iterations 13
smoothSolver:  Solving for Uy, Initial residual = 0.0037198, Final residual = 3.30981e-05, No Iterations 12
smoothSolver:  Solving for Uz, Initial residual = 0.0541612, Final residual = 0.000472818, No Iterations 13
smoothSolver:  Solving for h, Initial residual = 0.0304433, Final residual = 0.000274369, No Iterations 22
GAMG:  Solving for p, Initial residual = 0.0515364, Final residual = 0.000312834, No Iterations 3
GAMG:  Solving for p, Initial residual = 0.0208829, Final residual = 6.22679e-05, No Iterations 2
GAMG:  Solving for p, Initial residual = 0.00199989, Final residual = 1.36727e-05, No Iterations 2
time step continuity errors : sum local = 0.276429, global = -0.00615003, cumulative = -0.165571
pressureControl: p max 1.14696e+08
pressureControl: p min -246460
ExecutionTime = 4.12 s  ClockTime = 4 s

Time = 13

Courant Number mean: 34713.2 max: 1.0545e+08
smoothSolver:  Solving for Ux, Initial residual = 0.0601508, Final residual = 0.000520031, No Iterations 13
smoothSolver:  Solving for Uy, Initial residual = 0.00385813, Final residual = 3.35559e-05, No Iterations 12
smoothSolver:  Solving for Uz, Initial residual = 0.0531625, Final residual = 0.000458138, No Iterations 13
smoothSolver:  Solving for h, Initial residual = 0.0285704, Final residual = 0.0002624, No Iterations 22
GAMG:  Solving for p, Initial residual = 0.0480838, Final residual = 0.000302519, No Iterations 3
GAMG:  Solving for p, Initial residual = 0.0221865, Final residual = 6.37836e-05, No Iterations 2
GAMG:  Solving for p, Initial residual = 0.00207771, Final residual = 1.46266e-05, No Iterations 2
time step continuity errors : sum local = 0.265465, global = -0.00713078, cumulative = -0.172702
pressureControl: p max 1.10941e+08
pressureControl: p min -187618
ExecutionTime = 4.45 s  ClockTime = 4 s

Time = 14

Courant Number mean: 34714.5 max: 8.0688e+07
smoothSolver:  Solving for Ux, Initial residual = 0.0564106, Final residual = 0.000485944, No Iterations 13
smoothSolver:  Solving for Uy, Initial residual = 0.00397414, Final residual = 3.38645e-05, No Iterations 12
smoothSolver:  Solving for Uz, Initial residual = 0.0531002, Final residual = 0.00045051, No Iterations 13
smoothSolver:  Solving for h, Initial residual = 0.026926, Final residual = 0.000251609, No Iterations 22
GAMG:  Solving for p, Initial residual = 0.0444723, Final residual = 0.00027595, No Iterations 3
GAMG:  Solving for p, Initial residual = 0.0227082, Final residual = 6.14673e-05, No Iterations 2
GAMG:  Solving for p, Initial residual = 0.00208625, Final residual = 1.51157e-05, No Iterations 2
time step continuity errors : sum local = 0.258937, global = -0.00921389, cumulative = -0.181916
pressureControl: p max 1.0693e+08
pressureControl: p min -149152
ExecutionTime = 4.78 s  ClockTime = 5 s

Time = 15

Courant Number mean: 34717.8 max: 6.5536e+07
smoothSolver:  Solving for Ux, Initial residual = 0.0532208, Final residual = 0.0004588, No Iterations 13
smoothSolver:  Solving for Uy, Initial residual = 0.00408841, Final residual = 3.40702e-05, No Iterations 12
smoothSolver:  Solving for Uz, Initial residual = 0.0530363, Final residual = 0.000442995, No Iterations 13
smoothSolver:  Solving for h, Initial residual = 0.0254177, Final residual = 0.000241905, No Iterations 22
GAMG:  Solving for p, Initial residual = 0.0416357, Final residual = 0.000247964, No Iterations 3
GAMG:  Solving for p, Initial residual = 0.0234528, Final residual = 5.80878e-05, No Iterations 2
GAMG:  Solving for p, Initial residual = 0.00211796, Final residual = 1.57864e-05, No Iterations 2
time step continuity errors : sum local = 0.254467, global = -0.0122517, cumulative = -0.194167
pressureControl: p max 1.03203e+08
pressureControl: p min -111430
ExecutionTime = 5.1 s  ClockTime = 5 s

Time = 16

Courant Number mean: 34721.5 max: 5.53563e+07
smoothSolver:  Solving for Ux, Initial residual = 0.0506545, Final residual = 0.000436735, No Iterations 13
smoothSolver:  Solving for Uy, Initial residual = 0.00419897, Final residual = 3.42532e-05, No Iterations 12
smoothSolver:  Solving for Uz, Initial residual = 0.0527885, Final residual = 0.000435239, No Iterations 13
smoothSolver:  Solving for h, Initial residual = 0.024161, Final residual = 0.000233124, No Iterations 22
GAMG:  Solving for p, Initial residual = 0.0395621, Final residual = 0.000235117, No Iterations 3
GAMG:  Solving for p, Initial residual = 0.0245339, Final residual = 5.61778e-05, No Iterations 2
GAMG:  Solving for p, Initial residual = 0.0021849, Final residual = 1.6818e-05, No Iterations 2
time step continuity errors : sum local = 0.252408, global = -0.0155173, cumulative = -0.209685
pressureControl: p max 9.96035e+07
pressureControl: p min -71094.9
ExecutionTime = 5.44 s  ClockTime = 5 s

Time = 17

Courant Number mean: 34724.4 max: 4.77707e+07
smoothSolver:  Solving for Ux, Initial residual = 0.0486615, Final residual = 0.000417957, No Iterations 13
smoothSolver:  Solving for Uy, Initial residual = 0.00430337, Final residual = 3.43853e-05, No Iterations 12
smoothSolver:  Solving for Uz, Initial residual = 0.0524153, Final residual = 0.000427338, No Iterations 13
smoothSolver:  Solving for h, Initial residual = 0.0230499, Final residual = 0.0002252, No Iterations 22
GAMG:  Solving for p, Initial residual = 0.0380529, Final residual = 0.000231941, No Iterations 3
GAMG:  Solving for p, Initial residual = 0.0257672, Final residual = 5.55842e-05, No Iterations 2
GAMG:  Solving for p, Initial residual = 0.00227021, Final residual = 1.76509e-05, No Iterations 2
time step continuity errors : sum local = 0.245533, global = -0.0179513, cumulative = -0.227636
pressureControl: p max 9.64049e+07
pressureControl: p min -44400.9
ExecutionTime = 5.76 s  ClockTime = 6 s

Time = 18

Courant Number mean: 34725.9 max: 4.20801e+07
smoothSolver:  Solving for Ux, Initial residual = 0.0471326, Final residual = 0.00040154, No Iterations 13
smoothSolver:  Solving for Uy, Initial residual = 0.00441055, Final residual = 4.34924e-05, No Iterations 11
smoothSolver:  Solving for Uz, Initial residual = 0.0519879, Final residual = 0.000418921, No Iterations 13
smoothSolver:  Solving for h, Initial residual = 0.0220195, Final residual = 0.000218043, No Iterations 22
GAMG:  Solving for p, Initial residual = 0.0369327, Final residual = 0.000231909, No Iterations 3
GAMG:  Solving for p, Initial residual = 0.0269682, Final residual = 5.5916e-05, No Iterations 2
GAMG:  Solving for p, Initial residual = 0.00235497, Final residual = 1.82401e-05, No Iterations 2
time step continuity errors : sum local = 0.235522, global = -0.0197005, cumulative = -0.247336
pressureControl: p max 9.42882e+07
pressureControl: p min -28229.7
ExecutionTime = 6.09 s  ClockTime = 6 s

Time = 19

Courant Number mean: 34725.8 max: 4.06985e+07
smoothSolver:  Solving for Ux, Initial residual = 0.0459583, Final residual = 0.00038734, No Iterations 13
smoothSolver:  Solving for Uy, Initial residual = 0.00452012, Final residual = 4.37697e-05, No Iterations 11
smoothSolver:  Solving for Uz, Initial residual = 0.0515527, Final residual = 0.00041164, No Iterations 13
smoothSolver:  Solving for h, Initial residual = 0.0210614, Final residual = 0.000139618, No Iterations 24
GAMG:  Solving for p, Initial residual = 0.0361536, Final residual = 0.000227466, No Iterations 3
GAMG:  Solving for p, Initial residual = 0.0281875, Final residual = 5.48881e-05, No Iterations 2
GAMG:  Solving for p, Initial residual = 0.00244478, Final residual = 1.89791e-05, No Iterations 2
time step continuity errors : sum local = 0.227552, global = -0.0187824, cumulative = -0.266119
pressureControl: p max 9.36641e+07
pressureControl: p min -13193.4
ExecutionTime = 6.42 s  ClockTime = 6 s

Time = 20

Courant Number mean: 34724.1 max: 4.07011e+07
smoothSolver:  Solving for Ux, Initial residual = 0.0451195, Final residual = 0.000375278, No Iterations 13
smoothSolver:  Solving for Uy, Initial residual = 0.00464396, Final residual = 4.40377e-05, No Iterations 11
smoothSolver:  Solving for Uz, Initial residual = 0.051186, Final residual = 0.000405593, No Iterations 13
smoothSolver:  Solving for h, Initial residual = 0.0201972, Final residual = 0.000135833, No Iterations 24
GAMG:  Solving for p, Initial residual = 0.0358032, Final residual = 0.000227904, No Iterations 3
GAMG:  Solving for p, Initial residual = 0.0295834, Final residual = 5.43493e-05, No Iterations 2
GAMG:  Solving for p, Initial residual = 0.00254194, Final residual = 1.98973e-05, No Iterations 2
time step continuity errors : sum local = 0.220419, global = -0.0179175, cumulative = -0.284036
pressureControl: p max 9.31314e+07
pressureControl: p min 5123.19
ExecutionTime = 6.76 s  ClockTime = 7 s

Time = 21

Courant Number mean: 34720.1 max: 4.07114e+07
smoothSolver:  Solving for Ux, Initial residual = 0.0445065, Final residual = 0.000364855, No Iterations 13
smoothSolver:  Solving for Uy, Initial residual = 0.00477442, Final residual = 4.43034e-05, No Iterations 11
smoothSolver:  Solving for Uz, Initial residual = 0.0508135, Final residual = 0.00050689, No Iterations 12
smoothSolver:  Solving for h, Initial residual = 0.0194282, Final residual = 0.000132371, No Iterations 24
GAMG:  Solving for p, Initial residual = 0.0357093, Final residual = 0.000233019, No Iterations 3
GAMG:  Solving for p, Initial residual = 0.0308948, Final residual = 5.38872e-05, No Iterations 2
GAMG:  Solving for p, Initial residual = 0.00262673, Final residual = 2.06415e-05, No Iterations 2
time step continuity errors : sum local = 0.211355, global = -0.0167694, cumulative = -0.300806
pressureControl: p max 9.25308e+07
pressureControl: p min 22479
ExecutionTime = 7.12 s  ClockTime = 7 s

Time = 22

Courant Number mean: 34714.5 max: 4.07319e+07
smoothSolver:  Solving for Ux, Initial residual = 0.0439507, Final residual = 0.000355702, No Iterations 13
smoothSolver:  Solving for Uy, Initial residual = 0.00489586, Final residual = 4.44597e-05, No Iterations 11
smoothSolver:  Solving for Uz, Initial residual = 0.050242, Final residual = 0.000499628, No Iterations 12
smoothSolver:  Solving for h, Initial residual = 0.0187261, Final residual = 0.000129123, No Iterations 24
GAMG:  Solving for p, Initial residual = 0.0357342, Final residual = 0.000232581, No Iterations 3
GAMG:  Solving for p, Initial residual = 0.0320681, Final residual = 5.30076e-05, No Iterations 2
GAMG:  Solving for p, Initial residual = 0.00270232, Final residual = 2.12557e-05, No Iterations 2
time step continuity errors : sum local = 0.202675, global = -0.0143694, cumulative = -0.315175
pressureControl: p max 9.19249e+07
pressureControl: p min 37562.5
ExecutionTime = 7.51 s  ClockTime = 8 s

Time = 23

Courant Number mean: 34707 max: 4.07642e+07
smoothSolver:  Solving for Ux, Initial residual = 0.0434624, Final residual = 0.000347611, No Iterations 13
smoothSolver:  Solving for Uy, Initial residual = 0.00500708, Final residual = 4.46252e-05, No Iterations 11
smoothSolver:  Solving for Uz, Initial residual = 0.0495189, Final residual = 0.000489043, No Iterations 12
smoothSolver:  Solving for h, Initial residual = 0.0180866, Final residual = 0.000126025, No Iterations 24
GAMG:  Solving for p, Initial residual = 0.0357811, Final residual = 0.000229425, No Iterations 3
GAMG:  Solving for p, Initial residual = 0.0329463, Final residual = 5.25777e-05, No Iterations 2
GAMG:  Solving for p, Initial residual = 0.00275914, Final residual = 2.1678e-05, No Iterations 2
time step continuity errors : sum local = 0.194184, global = -0.0120421, cumulative = -0.327217
pressureControl: p max 9.11363e+07
pressureControl: p min 50581.3
ExecutionTime = 7.88 s  ClockTime = 8 s

Time = 24

Courant Number mean: 34697.8 max: 4.08088e+07
smoothSolver:  Solving for Ux, Initial residual = 0.0429029, Final residual = 0.000340308, No Iterations 13
smoothSolver:  Solving for Uy, Initial residual = 0.00510658, Final residual = 4.48216e-05, No Iterations 11
smoothSolver:  Solving for Uz, Initial residual = 0.0486267, Final residual = 0.000476825, No Iterations 12
smoothSolver:  Solving for h, Initial residual = 0.0175006, Final residual = 0.000123044, No Iterations 24
GAMG:  Solving for p, Initial residual = 0.0357326, Final residual = 0.000223083, No Iterations 3
GAMG:  Solving for p, Initial residual = 0.0334408, Final residual = 5.24047e-05, No Iterations 2
GAMG:  Solving for p, Initial residual = 0.00278871, Final residual = 2.17e-05, No Iterations 2
time step continuity errors : sum local = 0.18439, global = -0.00983755, cumulative = -0.337055
pressureControl: p max 9.02337e+07
pressureControl: p min 61801.3
ExecutionTime = 8.22 s  ClockTime = 8 s

Time = 25

Courant Number mean: 34687.4 max: 4.08654e+07
smoothSolver:  Solving for Ux, Initial residual = 0.0423751, Final residual = 0.000423514, No Iterations 12
smoothSolver:  Solving for Uy, Initial residual = 0.00520413, Final residual = 4.50113e-05, No Iterations 11
smoothSolver:  Solving for Uz, Initial residual = 0.0477264, Final residual = 0.00046472, No Iterations 12
smoothSolver:  Solving for h, Initial residual = 0.0169617, Final residual = 0.000120183, No Iterations 24
GAMG:  Solving for p, Initial residual = 0.0355361, Final residual = 0.000224225, No Iterations 3
GAMG:  Solving for p, Initial residual = 0.0334742, Final residual = 5.18139e-05, No Iterations 2
GAMG:  Solving for p, Initial residual = 0.0027873, Final residual = 2.13165e-05, No Iterations 2
time step continuity errors : sum local = 0.17351, global = -0.00783562, cumulative = -0.34489
pressureControl: p max 8.90321e+07
pressureControl: p min 67782.2
ExecutionTime = 8.58 s  ClockTime = 9 s

Time = 26

Courant Number mean: 34676.5 max: 4.09326e+07
smoothSolver:  Solving for Ux, Initial residual = 0.0417064, Final residual = 0.000416889, No Iterations 12
smoothSolver:  Solving for Uy, Initial residual = 0.00528788, Final residual = 4.51764e-05, No Iterations 11
smoothSolver:  Solving for Uz, Initial residual = 0.046698, Final residual = 0.000453308, No Iterations 12
smoothSolver:  Solving for h, Initial residual = 0.0164618, Final residual = 0.000117419, No Iterations 24
GAMG:  Solving for p, Initial residual = 0.0351696, Final residual = 0.000214384, No Iterations 3
GAMG:  Solving for p, Initial residual = 0.0331872, Final residual = 5.04849e-05, No Iterations 2
GAMG:  Solving for p, Initial residual = 0.00276119, Final residual = 2.06308e-05, No Iterations 2
time step continuity errors : sum local = 0.162582, global = -0.00625385, cumulative = -0.351144
pressureControl: p max 8.78842e+07
pressureControl: p min 71517.8
ExecutionTime = 8.91 s  ClockTime = 9 s

Time = 27

Courant Number mean: 34664.6 max: 4.10088e+07
smoothSolver:  Solving for Ux, Initial residual = 0.0409951, Final residual = 0.000407375, No Iterations 12
smoothSolver:  Solving for Uy, Initial residual = 0.00536385, Final residual = 4.53817e-05, No Iterations 11
smoothSolver:  Solving for Uz, Initial residual = 0.0456283, Final residual = 0.000442995, No Iterations 12
smoothSolver:  Solving for h, Initial residual = 0.0159948, Final residual = 0.000114745, No Iterations 24
GAMG:  Solving for p, Initial residual = 0.0346456, Final residual = 0.000211539, No Iterations 3
GAMG:  Solving for p, Initial residual = 0.0325486, Final residual = 4.95239e-05, No Iterations 2
GAMG:  Solving for p, Initial residual = 0.00271489, Final residual = 1.96027e-05, No Iterations 2
time step continuity errors : sum local = 0.15089, global = -0.00499789, cumulative = -0.356142
pressureControl: p max 8.67812e+07
pressureControl: p min 74881.5
ExecutionTime = 9.24 s  ClockTime = 9 s

Time = 28

Courant Number mean: 34652.2 max: 4.10925e+07
smoothSolver:  Solving for Ux, Initial residual = 0.0402796, Final residual = 0.000396205, No Iterations 12
smoothSolver:  Solving for Uy, Initial residual = 0.00542956, Final residual = 4.5585e-05, No Iterations 11
smoothSolver:  Solving for Uz, Initial residual = 0.0445695, Final residual = 0.000434258, No Iterations 12
smoothSolver:  Solving for h, Initial residual = 0.0155609, Final residual = 0.000112169, No Iterations 24
GAMG:  Solving for p, Initial residual = 0.0339663, Final residual = 0.000188145, No Iterations 3
GAMG:  Solving for p, Initial residual = 0.0316394, Final residual = 4.64321e-05, No Iterations 2
GAMG:  Solving for p, Initial residual = 0.00262988, Final residual = 1.84136e-05, No Iterations 2
time step continuity errors : sum local = 0.139461, global = -0.00411202, cumulative = -0.360254
pressureControl: p max 8.57971e+07
pressureControl: p min 78073.3
ExecutionTime = 9.58 s  ClockTime = 10 s

Time = 29

Courant Number mean: 34639.3 max: 4.11817e+07
smoothSolver:  Solving for Ux, Initial residual = 0.0395419, Final residual = 0.000384934, No Iterations 12
smoothSolver:  Solving for Uy, Initial residual = 0.00548151, Final residual = 4.57105e-05, No Iterations 11
smoothSolver:  Solving for Uz, Initial residual = 0.043535, Final residual = 0.000427083, No Iterations 12
smoothSolver:  Solving for h, Initial residual = 0.0151574, Final residual = 0.000109716, No Iterations 24
GAMG:  Solving for p, Initial residual = 0.0331812, Final residual = 0.00016806, No Iterations 3
GAMG:  Solving for p, Initial residual = 0.0305242, Final residual = 4.34561e-05, No Iterations 2
GAMG:  Solving for p, Initial residual = 0.00253366, Final residual = 1.71941e-05, No Iterations 2
time step continuity errors : sum local = 0.128841, global = -0.00353237, cumulative = -0.363786
pressureControl: p max 8.48069e+07
pressureControl: p min 81158.7
ExecutionTime = 9.9 s  ClockTime = 10 s

Time = 30

Courant Number mean: 34626 max: 4.12748e+07
smoothSolver:  Solving for Ux, Initial residual = 0.0387613, Final residual = 0.000374282, No Iterations 12
smoothSolver:  Solving for Uy, Initial residual = 0.0055203, Final residual = 4.58219e-05, No Iterations 11
smoothSolver:  Solving for Uz, Initial residual = 0.0425067, Final residual = 0.000417958, No Iterations 12
smoothSolver:  Solving for h, Initial residual = 0.0147772, Final residual = 0.000107403, No Iterations 24
GAMG:  Solving for p, Initial residual = 0.0323529, Final residual = 0.000154485, No Iterations 3
GAMG:  Solving for p, Initial residual = 0.0293186, Final residual = 4.01639e-05, No Iterations 2
GAMG:  Solving for p, Initial residual = 0.00243643, Final residual = 1.58781e-05, No Iterations 2
time step continuity errors : sum local = 0.118125, global = -0.00302397, cumulative = -0.36681
pressureControl: p max 8.3752e+07
pressureControl: p min 84143.5
ExecutionTime = 10.23 s  ClockTime = 10 s

Time = 31

Courant Number mean: 34612.3 max: 4.13705e+07
smoothSolver:  Solving for Ux, Initial residual = 0.0379283, Final residual = 0.000365746, No Iterations 12
smoothSolver:  Solving for Uy, Initial residual = 0.00554465, Final residual = 4.59588e-05, No Iterations 11
smoothSolver:  Solving for Uz, Initial residual = 0.0414916, Final residual = 0.000406076, No Iterations 12
smoothSolver:  Solving for h, Initial residual = 0.0144167, Final residual = 0.000105229, No Iterations 24
GAMG:  Solving for p, Initial residual = 0.0314877, Final residual = 0.000136728, No Iterations 3
GAMG:  Solving for p, Initial residual = 0.0280431, Final residual = 3.71396e-05, No Iterations 2
GAMG:  Solving for p, Initial residual = 0.00233745, Final residual = 1.47301e-05, No Iterations 2
time step continuity errors : sum local = 0.109048, global = -0.00261952, cumulative = -0.36943
pressureControl: p max 8.26812e+07
pressureControl: p min 86933.8
ExecutionTime = 10.61 s  ClockTime = 11 s

Time = 32

Courant Number mean: 34598.8 max: 4.14676e+07
smoothSolver:  Solving for Ux, Initial residual = 0.0371012, Final residual = 0.000359491, No Iterations 12
smoothSolver:  Solving for Uy, Initial residual = 0.00555909, Final residual = 4.59983e-05, No Iterations 11
smoothSolver:  Solving for Uz, Initial residual = 0.0404209, Final residual = 0.000393068, No Iterations 12
smoothSolver:  Solving for h, Initial residual = 0.0140724, Final residual = 0.00010316, No Iterations 24
GAMG:  Solving for p, Initial residual = 0.0305509, Final residual = 0.000123092, No Iterations 3
GAMG:  Solving for p, Initial residual = 0.026678, Final residual = 3.44708e-05, No Iterations 2
GAMG:  Solving for p, Initial residual = 0.00223429, Final residual = 1.35321e-05, No Iterations 2
time step continuity errors : sum local = 0.0998599, global = -0.00231995, cumulative = -0.37175
pressureControl: p max 8.15551e+07
pressureControl: p min 89387.1
ExecutionTime = 10.99 s  ClockTime = 11 s

Time = 33

Courant Number mean: 34585.2 max: 4.15655e+07
smoothSolver:  Solving for Ux, Initial residual = 0.0362512, Final residual = 0.000351652, No Iterations 12
smoothSolver:  Solving for Uy, Initial residual = 0.00556058, Final residual = 4.59092e-05, No Iterations 11
smoothSolver:  Solving for Uz, Initial residual = 0.0392696, Final residual = 0.000380721, No Iterations 12
smoothSolver:  Solving for h, Initial residual = 0.013742, Final residual = 0.000101163, No Iterations 24
GAMG:  Solving for p, Initial residual = 0.0295979, Final residual = 0.0001112, No Iterations 3
GAMG:  Solving for p, Initial residual = 0.0252567, Final residual = 3.24426e-05, No Iterations 2
GAMG:  Solving for p, Initial residual = 0.00212754, Final residual = 1.2524e-05, No Iterations 2
time step continuity errors : sum local = 0.0922094, global = -0.00210188, cumulative = -0.373852
pressureControl: p max 8.043e+07
pressureControl: p min 91507.1
ExecutionTime = 11.34 s  ClockTime = 11 s

Time = 34

Courant Number mean: 34571.8 max: 4.1664e+07
smoothSolver:  Solving for Ux, Initial residual = 0.0353829, Final residual = 0.000341292, No Iterations 12
smoothSolver:  Solving for Uy, Initial residual = 0.0055485, Final residual = 4.57513e-05, No Iterations 11
smoothSolver:  Solving for Uz, Initial residual = 0.0380666, Final residual = 0.00037012, No Iterations 12
smoothSolver:  Solving for h, Initial residual = 0.013427, Final residual = 9.91863e-05, No Iterations 24
GAMG:  Solving for p, Initial residual = 0.0286662, Final residual = 0.00010259, No Iterations 3
GAMG:  Solving for p, Initial residual = 0.0238313, Final residual = 3.06052e-05, No Iterations 2
GAMG:  Solving for p, Initial residual = 0.00201887, Final residual = 1.16126e-05, No Iterations 2
time step continuity errors : sum local = 0.0853619, global = -0.00189686, cumulative = -0.375749
pressureControl: p max 7.92876e+07
pressureControl: p min 93345.9
ExecutionTime = 11.67 s  ClockTime = 12 s

Time = 35

Courant Number mean: 34558.6 max: 4.17628e+07
smoothSolver:  Solving for Ux, Initial residual = 0.0344569, Final residual = 0.000330912, No Iterations 12
smoothSolver:  Solving for Uy, Initial residual = 0.00552546, Final residual = 4.5538e-05, No Iterations 11
smoothSolver:  Solving for Uz, Initial residual = 0.0368205, Final residual = 0.00036035, No Iterations 12
smoothSolver:  Solving for h, Initial residual = 0.0131232, Final residual = 9.71895e-05, No Iterations 24
GAMG:  Solving for p, Initial residual = 0.0277136, Final residual = 0.000108696, No Iterations 3
GAMG:  Solving for p, Initial residual = 0.0223896, Final residual = 2.98458e-05, No Iterations 2
GAMG:  Solving for p, Initial residual = 0.00191609, Final residual = 1.14949e-05, No Iterations 2
time step continuity errors : sum local = 0.0843877, global = -0.00258041, cumulative = -0.378329
pressureControl: p max 7.80901e+07
pressureControl: p min 94995.4
ExecutionTime = 12 s  ClockTime = 12 s

Time = 36

Courant Number mean: 34544.8 max: 4.18613e+07
smoothSolver:  Solving for Ux, Initial residual = 0.0335055, Final residual = 0.000322126, No Iterations 12
smoothSolver:  Solving for Uy, Initial residual = 0.00549774, Final residual = 4.53006e-05, No Iterations 11
smoothSolver:  Solving for Uz, Initial residual = 0.0356083, Final residual = 0.000347425, No Iterations 12
smoothSolver:  Solving for h, Initial residual = 0.0128293, Final residual = 9.51613e-05, No Iterations 24
GAMG:  Solving for p, Initial residual = 0.0267708, Final residual = 0.000101551, No Iterations 3
GAMG:  Solving for p, Initial residual = 0.0208279, Final residual = 2.73662e-05, No Iterations 2
GAMG:  Solving for p, Initial residual = 0.00178919, Final residual = 1.0379e-05, No Iterations 2
time step continuity errors : sum local = 0.0761565, global = -0.00207129, cumulative = -0.3804
pressureControl: p max 7.68635e+07
pressureControl: p min 96532.3
ExecutionTime = 12.34 s  ClockTime = 12 s

Time = 37

Courant Number mean: 34531.1 max: 4.19591e+07
smoothSolver:  Solving for Ux, Initial residual = 0.0325323, Final residual = 0.000315362, No Iterations 12
smoothSolver:  Solving for Uy, Initial residual = 0.00545593, Final residual = 4.4952e-05, No Iterations 11
smoothSolver:  Solving for Uz, Initial residual = 0.0343772, Final residual = 0.00033318, No Iterations 12
smoothSolver:  Solving for h, Initial residual = 0.012544, Final residual = 9.31021e-05, No Iterations 24
GAMG:  Solving for p, Initial residual = 0.0257902, Final residual = 9.01871e-05, No Iterations 3
GAMG:  Solving for p, Initial residual = 0.0192457, Final residual = 2.47562e-05, No Iterations 2
GAMG:  Solving for p, Initial residual = 0.00165981, Final residual = 9.50964e-06, No Iterations 2
time step continuity errors : sum local = 0.069757, global = -0.00177943, cumulative = -0.38218
pressureControl: p max 7.56725e+07
pressureControl: p min 97886.2
ExecutionTime = 12.68 s  ClockTime = 13 s

Time = 38

Courant Number mean: 34516.7 max: 4.2056e+07
smoothSolver:  Solving for Ux, Initial residual = 0.0315639, Final residual = 0.000305225, No Iterations 12
smoothSolver:  Solving for Uy, Initial residual = 0.00540637, Final residual = 4.45446e-05, No Iterations 11
smoothSolver:  Solving for Uz, Initial residual = 0.0331456, Final residual = 0.000320549, No Iterations 12
smoothSolver:  Solving for h, Initial residual = 0.0122663, Final residual = 9.10332e-05, No Iterations 24
GAMG:  Solving for p, Initial residual = 0.0248206, Final residual = 7.8419e-05, No Iterations 3
GAMG:  Solving for p, Initial residual = 0.0176178, Final residual = 2.2627e-05, No Iterations 2
GAMG:  Solving for p, Initial residual = 0.00153168, Final residual = 8.48251e-06, No Iterations 2
time step continuity errors : sum local = 0.0622345, global = -0.00140651, cumulative = -0.383586
pressureControl: p max 7.45299e+07
pressureControl: p min 98371.1
ExecutionTime = 13 s  ClockTime = 13 s

Time = 39

Courant Number mean: 34501.8 max: 4.21515e+07
smoothSolver:  Solving for Ux, Initial residual = 0.0305953, Final residual = 0.0002943, No Iterations 12
smoothSolver:  Solving for Uy, Initial residual = 0.00534733, Final residual = 4.41168e-05, No Iterations 11
smoothSolver:  Solving for Uz, Initial residual = 0.0319688, Final residual = 0.000309658, No Iterations 12
smoothSolver:  Solving for h, Initial residual = 0.0119947, Final residual = 8.89775e-05, No Iterations 24
GAMG:  Solving for p, Initial residual = 0.0238469, Final residual = 7.22315e-05, No Iterations 3
GAMG:  Solving for p, Initial residual = 0.0161037, Final residual = 2.10822e-05, No Iterations 2
GAMG:  Solving for p, Initial residual = 0.00141479, Final residual = 7.58866e-06, No Iterations 2
time step continuity errors : sum local = 0.0556894, global = -0.00123787, cumulative = -0.384824
pressureControl: p max 7.33626e+07
pressureControl: p min 98568
ExecutionTime = 13.33 s  ClockTime = 13 s

Time = 40

Courant Number mean: 34486.1 max: 4.22453e+07
smoothSolver:  Solving for Ux, Initial residual = 0.0296277, Final residual = 0.00028628, No Iterations 12
smoothSolver:  Solving for Uy, Initial residual = 0.00528429, Final residual = 4.36321e-05, No Iterations 11
smoothSolver:  Solving for Uz, Initial residual = 0.0308284, Final residual = 0.000294785, No Iterations 12
smoothSolver:  Solving for h, Initial residual = 0.0117296, Final residual = 8.69552e-05, No Iterations 24
GAMG:  Solving for p, Initial residual = 0.0228296, Final residual = 6.46012e-05, No Iterations 3
GAMG:  Solving for p, Initial residual = 0.0145641, Final residual = 1.93407e-05, No Iterations 2
GAMG:  Solving for p, Initial residual = 0.0012939, Final residual = 6.7963e-06, No Iterations 2
time step continuity errors : sum local = 0.0499122, global = -0.00106749, cumulative = -0.385892
pressureControl: p max 7.21743e+07
pressureControl: p min 98745.3
ExecutionTime = 13.66 s  ClockTime = 14 s

Time = 41

Courant Number mean: 34469.7 max: 4.23373e+07
smoothSolver:  Solving for Ux, Initial residual = 0.0286731, Final residual = 0.000276585, No Iterations 12
smoothSolver:  Solving for Uy, Initial residual = 0.00522328, Final residual = 4.30467e-05, No Iterations 11
smoothSolver:  Solving for Uz, Initial residual = 0.0297158, Final residual = 0.000281284, No Iterations 12
smoothSolver:  Solving for h, Initial residual = 0.011471, Final residual = 8.49734e-05, No Iterations 24
GAMG:  Solving for p, Initial residual = 0.0217898, Final residual = 5.7002e-05, No Iterations 3
GAMG:  Solving for p, Initial residual = 0.0129353, Final residual = 1.72326e-05, No Iterations 2
GAMG:  Solving for p, Initial residual = 0.00115988, Final residual = 6.16399e-06, No Iterations 2
time step continuity errors : sum local = 0.0453265, global = -0.000924523, cumulative = -0.386816
pressureControl: p max 7.09709e+07
pressureControl: p min 92157.1
ExecutionTime = 13.98 s  ClockTime = 14 s

Time = 42

Courant Number mean: 34452.2 max: 4.24272e+07
smoothSolver:  Solving for Ux, Initial residual = 0.0277079, Final residual = 0.000264632, No Iterations 12
smoothSolver:  Solving for Uy, Initial residual = 0.00515242, Final residual = 4.23439e-05, No Iterations 11
smoothSolver:  Solving for Uz, Initial residual = 0.0286365, Final residual = 0.000270537, No Iterations 12
smoothSolver:  Solving for h, Initial residual = 0.0112172, Final residual = 8.30334e-05, No Iterations 24
GAMG:  Solving for p, Initial residual = 0.0207613, Final residual = 5.30596e-05, No Iterations 3
GAMG:  Solving for p, Initial residual = 0.0114225, Final residual = 1.57636e-05, No Iterations 2
GAMG:  Solving for p, Initial residual = 0.00104052, Final residual = 6.36363e-06, No Iterations 2
time step continuity errors : sum local = 0.0468667, global = -0.000226123, cumulative = -0.387042
pressureControl: p max 6.97509e+07
pressureControl: p min 89900.4
ExecutionTime = 14.3 s  ClockTime = 14 s

Time = 43

Courant Number mean: 34433.1 max: 4.2515e+07
smoothSolver:  Solving for Ux, Initial residual = 0.0267352, Final residual = 0.000255094, No Iterations 12
smoothSolver:  Solving for Uy, Initial residual = 0.00507353, Final residual = 4.15813e-05, No Iterations 11
smoothSolver:  Solving for Uz, Initial residual = 0.0276025, Final residual = 0.000256881, No Iterations 12
smoothSolver:  Solving for h, Initial residual = 0.0109676, Final residual = 8.11368e-05, No Iterations 24
GAMG:  Solving for p, Initial residual = 0.0197774, Final residual = 0.000192332, No Iterations 2
GAMG:  Solving for p, Initial residual = 0.00975252, Final residual = 4.13334e-05, No Iterations 2
GAMG:  Solving for p, Initial residual = 0.0011503, Final residual = 7.21937e-06, No Iterations 2
time step continuity errors : sum local = 0.0531841, global = 7.28899e-05, cumulative = -0.386969
pressureControl: p max 6.84913e+07
pressureControl: p min 89978.6
ExecutionTime = 14.63 s  ClockTime = 15 s

Time = 44

Courant Number mean: 34411.3 max: 4.26007e+07
smoothSolver:  Solving for Ux, Initial residual = 0.0257782, Final residual = 0.000246447, No Iterations 12
smoothSolver:  Solving for Uy, Initial residual = 0.00498877, Final residual = 4.07346e-05, No Iterations 11
smoothSolver:  Solving for Uz, Initial residual = 0.0265698, Final residual = 0.000242924, No Iterations 12
smoothSolver:  Solving for h, Initial residual = 0.0107233, Final residual = 7.92923e-05, No Iterations 24
GAMG:  Solving for p, Initial residual = 0.0188849, Final residual = 0.000182094, No Iterations 2
GAMG:  Solving for p, Initial residual = 0.00887408, Final residual = 3.82897e-05, No Iterations 2
GAMG:  Solving for p, Initial residual = 0.00107403, Final residual = 6.80404e-06, No Iterations 2
time step continuity errors : sum local = 0.0501564, global = 3.47836e-05, cumulative = -0.386935
pressureControl: p max 6.7241e+07
pressureControl: p min 90043.4
ExecutionTime = 14.95 s  ClockTime = 15 s

Time = 45

Courant Number mean: 34386.2 max: 4.26842e+07
smoothSolver:  Solving for Ux, Initial residual = 0.0248427, Final residual = 0.000236062, No Iterations 12
smoothSolver:  Solving for Uy, Initial residual = 0.00489424, Final residual = 3.97576e-05, No Iterations 11
smoothSolver:  Solving for Uz, Initial residual = 0.0255544, Final residual = 0.000230513, No Iterations 12
smoothSolver:  Solving for h, Initial residual = 0.0104848, Final residual = 7.75046e-05, No Iterations 24
GAMG:  Solving for p, Initial residual = 0.0181069, Final residual = 0.000174808, No Iterations 2
GAMG:  Solving for p, Initial residual = 0.0081355, Final residual = 3.59553e-05, No Iterations 2
GAMG:  Solving for p, Initial residual = 0.00100682, Final residual = 6.58065e-06, No Iterations 2
time step continuity errors : sum local = 0.0485027, global = 7.96457e-05, cumulative = -0.386855
pressureControl: p max 6.59377e+07
pressureControl: p min 90089.2
ExecutionTime = 15.26 s  ClockTime = 15 s

Time = 46

Courant Number mean: 34357.9 max: 4.27654e+07
smoothSolver:  Solving for Ux, Initial residual = 0.0239063, Final residual = 0.000224901, No Iterations 12
smoothSolver:  Solving for Uy, Initial residual = 0.00478865, Final residual = 3.8628e-05, No Iterations 11
smoothSolver:  Solving for Uz, Initial residual = 0.0245467, Final residual = 0.000219832, No Iterations 12
smoothSolver:  Solving for h, Initial residual = 0.0102526, Final residual = 7.57852e-05, No Iterations 24
GAMG:  Solving for p, Initial residual = 0.0174408, Final residual = 0.000165867, No Iterations 2
GAMG:  Solving for p, Initial residual = 0.00749202, Final residual = 3.43174e-05, No Iterations 2
GAMG:  Solving for p, Initial residual = 0.000949287, Final residual = 6.12937e-06, No Iterations 2
time step continuity errors : sum local = 0.0451348, global = 0.000115996, cumulative = -0.386739
pressureControl: p max 6.46008e+07
pressureControl: p min 90121.3
ExecutionTime = 15.58 s  ClockTime = 16 s

Time = 47

Courant Number mean: 34326.5 max: 4.28443e+07
smoothSolver:  Solving for Ux, Initial residual = 0.0229814, Final residual = 0.00021415, No Iterations 12
smoothSolver:  Solving for Uy, Initial residual = 0.00467869, Final residual = 3.75299e-05, No Iterations 11
smoothSolver:  Solving for Uz, Initial residual = 0.0235655, Final residual = 0.000210933, No Iterations 12
smoothSolver:  Solving for h, Initial residual = 0.0100262, Final residual = 7.41279e-05, No Iterations 24
GAMG:  Solving for p, Initial residual = 0.0168639, Final residual = 0.000154736, No Iterations 2
GAMG:  Solving for p, Initial residual = 0.00692065, Final residual = 3.26473e-05, No Iterations 2
GAMG:  Solving for p, Initial residual = 0.000895409, Final residual = 5.8453e-06, No Iterations 2
time step continuity errors : sum local = 0.042969, global = 0.000155554, cumulative = -0.386583
pressureControl: p max 6.32509e+07
pressureControl: p min 90153.3
ExecutionTime = 15.91 s  ClockTime = 16 s

Time = 48

Courant Number mean: 34292.8 max: 4.29211e+07
smoothSolver:  Solving for Ux, Initial residual = 0.0220819, Final residual = 0.000203402, No Iterations 12
smoothSolver:  Solving for Uy, Initial residual = 0.00456463, Final residual = 3.65047e-05, No Iterations 11
smoothSolver:  Solving for Uz, Initial residual = 0.0226094, Final residual = 0.00020242, No Iterations 12
smoothSolver:  Solving for h, Initial residual = 0.00980533, Final residual = 7.25283e-05, No Iterations 24
GAMG:  Solving for p, Initial residual = 0.0163582, Final residual = 0.000144581, No Iterations 2
GAMG:  Solving for p, Initial residual = 0.00643764, Final residual = 3.11964e-05, No Iterations 2
GAMG:  Solving for p, Initial residual = 0.000849423, Final residual = 5.58897e-06, No Iterations 2
time step continuity errors : sum local = 0.040981, global = 0.000183452, cumulative = -0.3864
pressureControl: p max 6.18695e+07
pressureControl: p min 90181.9
ExecutionTime = 16.22 s  ClockTime = 16 s

Time = 49

Courant Number mean: 34257.5 max: 4.29957e+07
smoothSolver:  Solving for Ux, Initial residual = 0.0212217, Final residual = 0.000192797, No Iterations 12
smoothSolver:  Solving for Uy, Initial residual = 0.00445382, Final residual = 3.54975e-05, No Iterations 11
smoothSolver:  Solving for Uz, Initial residual = 0.0216876, Final residual = 0.000193735, No Iterations 12
smoothSolver:  Solving for h, Initial residual = 0.00958961, Final residual = 7.09835e-05, No Iterations 24
GAMG:  Solving for p, Initial residual = 0.0159278, Final residual = 0.000136548, No Iterations 2
GAMG:  Solving for p, Initial residual = 0.00604702, Final residual = 2.98474e-05, No Iterations 2
GAMG:  Solving for p, Initial residual = 0.000810238, Final residual = 5.34709e-06, No Iterations 2
time step continuity errors : sum local = 0.0390771, global = 0.000195665, cumulative = -0.386204
pressureControl: p max 6.04581e+07
pressureControl: p min 90208.7
ExecutionTime = 16.56 s  ClockTime = 17 s

Time = 50

Courant Number mean: 34221 max: 4.30681e+07
smoothSolver:  Solving for Ux, Initial residual = 0.0203969, Final residual = 0.000182746, No Iterations 12
smoothSolver:  Solving for Uy, Initial residual = 0.00434731, Final residual = 3.45224e-05, No Iterations 11
smoothSolver:  Solving for Uz, Initial residual = 0.0207926, Final residual = 0.00018476, No Iterations 12
smoothSolver:  Solving for h, Initial residual = 0.00937931, Final residual = 6.94879e-05, No Iterations 24
GAMG:  Solving for p, Initial residual = 0.0155607, Final residual = 0.000130761, No Iterations 2
GAMG:  Solving for p, Initial residual = 0.00573597, Final residual = 2.85241e-05, No Iterations 2
GAMG:  Solving for p, Initial residual = 0.000776108, Final residual = 5.11904e-06, No Iterations 2
time step continuity errors : sum local = 0.0372598, global = 0.000194052, cumulative = -0.38601
pressureControl: p max 5.90049e+07
pressureControl: p min 90234.3
ExecutionTime = 16.92 s  ClockTime = 17 s

Time = 51

Courant Number mean: 34183.9 max: 4.31385e+07
smoothSolver:  Solving for Ux, Initial residual = 0.0196016, Final residual = 0.000173024, No Iterations 12
smoothSolver:  Solving for Uy, Initial residual = 0.00423976, Final residual = 3.35385e-05, No Iterations 11
smoothSolver:  Solving for Uz, Initial residual = 0.0199328, Final residual = 0.0001755, No Iterations 12
smoothSolver:  Solving for h, Initial residual = 0.00917508, Final residual = 6.80356e-05, No Iterations 24
GAMG:  Solving for p, Initial residual = 0.015253, Final residual = 0.000125835, No Iterations 2
GAMG:  Solving for p, Initial residual = 0.00547025, Final residual = 2.73469e-05, No Iterations 2
GAMG:  Solving for p, Initial residual = 0.000746362, Final residual = 4.92159e-06, No Iterations 2
time step continuity errors : sum local = 0.0356571, global = 0.000186659, cumulative = -0.385824
pressureControl: p max 5.75158e+07
pressureControl: p min 90259.3
ExecutionTime = 17.25 s  ClockTime = 17 s

Time = 52

Courant Number mean: 34146.3 max: 4.32068e+07
smoothSolver:  Solving for Ux, Initial residual = 0.0188364, Final residual = 0.000163676, No Iterations 12
smoothSolver:  Solving for Uy, Initial residual = 0.0041324, Final residual = 3.25239e-05, No Iterations 11
smoothSolver:  Solving for Uz, Initial residual = 0.0190911, Final residual = 0.000166215, No Iterations 12
smoothSolver:  Solving for h, Initial residual = 0.00897764, Final residual = 6.66227e-05, No Iterations 24
GAMG:  Solving for p, Initial residual = 0.0149909, Final residual = 0.000121028, No Iterations 2
GAMG:  Solving for p, Initial residual = 0.00522879, Final residual = 2.63952e-05, No Iterations 2
GAMG:  Solving for p, Initial residual = 0.000720859, Final residual = 4.76632e-06, No Iterations 2
time step continuity errors : sum local = 0.0343548, global = 0.000185339, cumulative = -0.385638
pressureControl: p max 5.59831e+07
pressureControl: p min 90284.2
ExecutionTime = 17.58 s  ClockTime = 18 s

Time = 53

Courant Number mean: 34108.5 max: 4.32731e+07
smoothSolver:  Solving for Ux, Initial residual = 0.0180791, Final residual = 0.000154695, No Iterations 12
smoothSolver:  Solving for Uy, Initial residual = 0.00402094, Final residual = 4.01548e-05, No Iterations 10
smoothSolver:  Solving for Uz, Initial residual = 0.0182802, Final residual = 0.000156965, No Iterations 12
smoothSolver:  Solving for h, Initial residual = 0.00878452, Final residual = 6.52469e-05, No Iterations 24
GAMG:  Solving for p, Initial residual = 0.0147607, Final residual = 0.000115985, No Iterations 2
GAMG:  Solving for p, Initial residual = 0.00499435, Final residual = 2.55402e-05, No Iterations 2
GAMG:  Solving for p, Initial residual = 0.000697966, Final residual = 4.60736e-06, No Iterations 2
time step continuity errors : sum local = 0.0330225, global = 0.000164427, cumulative = -0.385474
pressureControl: p max 5.4388e+07
pressureControl: p min 90312.4
ExecutionTime = 17.89 s  ClockTime = 18 s

Time = 54

Courant Number mean: 34070.8 max: 4.33358e+07
smoothSolver:  Solving for Ux, Initial residual = 0.0173405, Final residual = 0.000145994, No Iterations 12
smoothSolver:  Solving for Uy, Initial residual = 0.00390147, Final residual = 3.88306e-05, No Iterations 10
smoothSolver:  Solving for Uz, Initial residual = 0.0174855, Final residual = 0.000147772, No Iterations 12
smoothSolver:  Solving for h, Initial residual = 0.00859389, Final residual = 6.38986e-05, No Iterations 24
GAMG:  Solving for p, Initial residual = 0.0145548, Final residual = 0.000112863, No Iterations 2
GAMG:  Solving for p, Initial residual = 0.00480566, Final residual = 2.34526e-05, No Iterations 2
GAMG:  Solving for p, Initial residual = 0.000662183, Final residual = 4.09846e-06, No Iterations 2
time step continuity errors : sum local = 0.0291947, global = -0.000147075, cumulative = -0.385621
pressureControl: p max 5.27765e+07
pressureControl: p min 90329.8
ExecutionTime = 18.21 s  ClockTime = 18 s

Time = 55

Courant Number mean: 34033 max: 4.33969e+07
smoothSolver:  Solving for Ux, Initial residual = 0.0166162, Final residual = 0.000137577, No Iterations 12
smoothSolver:  Solving for Uy, Initial residual = 0.00378195, Final residual = 3.73846e-05, No Iterations 10
smoothSolver:  Solving for Uz, Initial residual = 0.0167144, Final residual = 0.000138704, No Iterations 12
smoothSolver:  Solving for h, Initial residual = 0.00840734, Final residual = 6.25742e-05, No Iterations 24
GAMG:  Solving for p, Initial residual = 0.0143717, Final residual = 0.000108327, No Iterations 2
GAMG:  Solving for p, Initial residual = 0.00459408, Final residual = 2.27881e-05, No Iterations 2
GAMG:  Solving for p, Initial residual = 0.000644584, Final residual = 3.9242e-06, No Iterations 2
time step continuity errors : sum local = 0.0277736, global = -0.000112048, cumulative = -0.385733
pressureControl: p max 5.11235e+07
pressureControl: p min 90353.6
ExecutionTime = 18.53 s  ClockTime = 19 s

Time = 56

Courant Number mean: 33995.4 max: 4.34564e+07
smoothSolver:  Solving for Ux, Initial residual = 0.0159003, Final residual = 0.000129215, No Iterations 12
smoothSolver:  Solving for Uy, Initial residual = 0.00365716, Final residual = 3.57857e-05, No Iterations 10
smoothSolver:  Solving for Uz, Initial residual = 0.0159548, Final residual = 0.000129756, No Iterations 12
smoothSolver:  Solving for h, Initial residual = 0.00822591, Final residual = 6.12671e-05, No Iterations 24
GAMG:  Solving for p, Initial residual = 0.0142061, Final residual = 0.00010386, No Iterations 2
GAMG:  Solving for p, Initial residual = 0.00438788, Final residual = 2.20522e-05, No Iterations 2
GAMG:  Solving for p, Initial residual = 0.00062699, Final residual = 3.77378e-06, No Iterations 2
time step continuity errors : sum local = 0.0265277, global = -7.08694e-05, cumulative = -0.385804
pressureControl: p max 4.94294e+07
pressureControl: p min 90371.1
ExecutionTime = 18.85 s  ClockTime = 19 s

Time = 57

Courant Number mean: 33958 max: 4.35145e+07
smoothSolver:  Solving for Ux, Initial residual = 0.0152059, Final residual = 0.00012089, No Iterations 12
smoothSolver:  Solving for Uy, Initial residual = 0.00353068, Final residual = 3.41227e-05, No Iterations 10
smoothSolver:  Solving for Uz, Initial residual = 0.0152179, Final residual = 0.000121062, No Iterations 12
smoothSolver:  Solving for h, Initial residual = 0.00804938, Final residual = 5.99842e-05, No Iterations 24
GAMG:  Solving for p, Initial residual = 0.0140564, Final residual = 9.9662e-05, No Iterations 2
GAMG:  Solving for p, Initial residual = 0.00418754, Final residual = 2.12877e-05, No Iterations 2
GAMG:  Solving for p, Initial residual = 0.000609748, Final residual = 3.64858e-06, No Iterations 2
time step continuity errors : sum local = 0.0254652, global = -4.16207e-05, cumulative = -0.385845
pressureControl: p max 4.76997e+07
pressureControl: p min 90388.2
ExecutionTime = 19.17 s  ClockTime = 19 s

Time = 58

Courant Number mean: 33920.9 max: 4.3571e+07
smoothSolver:  Solving for Ux, Initial residual = 0.0145299, Final residual = 0.000144341, No Iterations 11
smoothSolver:  Solving for Uy, Initial residual = 0.00340349, Final residual = 3.23679e-05, No Iterations 10
smoothSolver:  Solving for Uz, Initial residual = 0.014496, Final residual = 0.000144284, No Iterations 11
smoothSolver:  Solving for h, Initial residual = 0.0078781, Final residual = 5.87312e-05, No Iterations 24
GAMG:  Solving for p, Initial residual = 0.013909, Final residual = 9.56782e-05, No Iterations 2
GAMG:  Solving for p, Initial residual = 0.00398345, Final residual = 2.05223e-05, No Iterations 2
GAMG:  Solving for p, Initial residual = 0.000592424, Final residual = 3.68511e-06, No Iterations 2
time step continuity errors : sum local = 0.0255161, global = -3.37753e-05, cumulative = -0.385879
pressureControl: p max 4.56443e+07
pressureControl: p min 90403.3
ExecutionTime = 19.49 s  ClockTime = 20 s

Time = 59

Courant Number mean: 33884.2 max: 4.36261e+07
smoothSolver:  Solving for Ux, Initial residual = 0.0138261, Final residual = 0.000133623, No Iterations 11
smoothSolver:  Solving for Uy, Initial residual = 0.00326437, Final residual = 3.04977e-05, No Iterations 10
smoothSolver:  Solving for Uz, Initial residual = 0.0137496, Final residual = 0.000133807, No Iterations 11
smoothSolver:  Solving for h, Initial residual = 0.00771111, Final residual = 5.75097e-05, No Iterations 24
GAMG:  Solving for p, Initial residual = 0.0137701, Final residual = 9.28298e-05, No Iterations 2
GAMG:  Solving for p, Initial residual = 0.00377685, Final residual = 1.98737e-05, No Iterations 2
GAMG:  Solving for p, Initial residual = 0.000577034, Final residual = 3.68647e-06, No Iterations 2
time step continuity errors : sum local = 0.0253292, global = 3.22905e-05, cumulative = -0.385847
pressureControl: p max 4.38371e+07
pressureControl: p min 90419
ExecutionTime = 19.8 s  ClockTime = 20 s

Time = 60

Courant Number mean: 33847.9 max: 4.36799e+07
smoothSolver:  Solving for Ux, Initial residual = 0.0131562, Final residual = 0.000122681, No Iterations 11
smoothSolver:  Solving for Uy, Initial residual = 0.0031319, Final residual = 2.86086e-05, No Iterations 10
smoothSolver:  Solving for Uz, Initial residual = 0.0130471, Final residual = 0.000123051, No Iterations 11
smoothSolver:  Solving for h, Initial residual = 0.00754811, Final residual = 5.63222e-05, No Iterations 24
GAMG:  Solving for p, Initial residual = 0.0136297, Final residual = 9.07902e-05, No Iterations 2
GAMG:  Solving for p, Initial residual = 0.00357552, Final residual = 1.95279e-05, No Iterations 2
GAMG:  Solving for p, Initial residual = 0.00056549, Final residual = 3.6012e-06, No Iterations 2
time step continuity errors : sum local = 0.0245484, global = 4.54346e-05, cumulative = -0.385801
pressureControl: p max 4.20332e+07
pressureControl: p min 90437.1
ExecutionTime = 20.11 s  ClockTime = 20 s

Time = 61

Courant Number mean: 33812 max: 4.37324e+07
smoothSolver:  Solving for Ux, Initial residual = 0.0125139, Final residual = 0.000111802, No Iterations 11
smoothSolver:  Solving for Uy, Initial residual = 0.00299886, Final residual = 2.66713e-05, No Iterations 10
smoothSolver:  Solving for Uz, Initial residual = 0.0123664, Final residual = 0.000112013, No Iterations 11
smoothSolver:  Solving for h, Initial residual = 0.00738902, Final residual = 5.51627e-05, No Iterations 24
GAMG:  Solving for p, Initial residual = 0.0134913, Final residual = 8.82436e-05, No Iterations 2
GAMG:  Solving for p, Initial residual = 0.003375, Final residual = 1.93642e-05, No Iterations 2
GAMG:  Solving for p, Initial residual = 0.000555683, Final residual = 3.58487e-06, No Iterations 2
time step continuity errors : sum local = 0.0242405, global = 0.000201153, cumulative = -0.3856
pressureControl: p max 4.02334e+07
pressureControl: p min 90453.6
ExecutionTime = 20.44 s  ClockTime = 20 s

Time = 62

Courant Number mean: 33776.6 max: 4.37836e+07
smoothSolver:  Solving for Ux, Initial residual = 0.0118843, Final residual = 0.00010105, No Iterations 11
smoothSolver:  Solving for Uy, Initial residual = 0.00286704, Final residual = 2.47425e-05, No Iterations 10
smoothSolver:  Solving for Uz, Initial residual = 0.0117035, Final residual = 0.000100874, No Iterations 11
smoothSolver:  Solving for h, Initial residual = 0.00723371, Final residual = 5.40271e-05, No Iterations 24
GAMG:  Solving for p, Initial residual = 0.0133469, Final residual = 8.49975e-05, No Iterations 2
GAMG:  Solving for p, Initial residual = 0.00317857, Final residual = 1.84778e-05, No Iterations 2
GAMG:  Solving for p, Initial residual = 0.000548146, Final residual = 3.47478e-06, No Iterations 2
time step continuity errors : sum local = 0.0233015, global = 7.4222e-05, cumulative = -0.385526
pressureControl: p max 3.84292e+07
pressureControl: p min 90465.3
ExecutionTime = 20.76 s  ClockTime = 21 s

Time = 63

Courant Number mean: 33741.9 max: 4.38338e+07
smoothSolver:  Solving for Ux, Initial residual = 0.01125, Final residual = 9.11621e-05, No Iterations 11
smoothSolver:  Solving for Uy, Initial residual = 0.00273284, Final residual = 2.2856e-05, No Iterations 10
smoothSolver:  Solving for Uz, Initial residual = 0.011048, Final residual = 8.95054e-05, No Iterations 11
smoothSolver:  Solving for h, Initial residual = 0.00708264, Final residual = 5.29138e-05, No Iterations 24
GAMG:  Solving for p, Initial residual = 0.0131911, Final residual = 8.09028e-05, No Iterations 2
GAMG:  Solving for p, Initial residual = 0.00299468, Final residual = 1.7845e-05, No Iterations 2
GAMG:  Solving for p, Initial residual = 0.00053367, Final residual = 3.38735e-06, No Iterations 2
time step continuity errors : sum local = 0.0225224, global = -1.87628e-05, cumulative = -0.385545
pressureControl: p max 3.6604e+07
pressureControl: p min 90480.1
ExecutionTime = 21.08 s  ClockTime = 21 s

Time = 64

Courant Number mean: 33707.9 max: 4.38829e+07
smoothSolver:  Solving for Ux, Initial residual = 0.0106017, Final residual = 8.24722e-05, No Iterations 11
smoothSolver:  Solving for Uy, Initial residual = 0.00259245, Final residual = 2.06696e-05, No Iterations 10
smoothSolver:  Solving for Uz, Initial residual = 0.0103879, Final residual = 0.000101412, No Iterations 10
smoothSolver:  Solving for h, Initial residual = 0.00693502, Final residual = 5.18225e-05, No Iterations 24
GAMG:  Solving for p, Initial residual = 0.0129991, Final residual = 7.73164e-05, No Iterations 2
GAMG:  Solving for p, Initial residual = 0.00281924, Final residual = 1.75821e-05, No Iterations 2
GAMG:  Solving for p, Initial residual = 0.000523604, Final residual = 3.40997e-06, No Iterations 2
time step continuity errors : sum local = 0.022477, global = -1.27545e-05, cumulative = -0.385558
pressureControl: p max 3.4624e+07
pressureControl: p min 90492.8
ExecutionTime = 21.39 s  ClockTime = 21 s

Time = 65

Courant Number mean: 33674.7 max: 4.3931e+07
smoothSolver:  Solving for Ux, Initial residual = 0.00990156, Final residual = 9.64882e-05, No Iterations 10
smoothSolver:  Solving for Uy, Initial residual = 0.00243589, Final residual = 1.86862e-05, No Iterations 10
smoothSolver:  Solving for Uz, Initial residual = 0.0097027, Final residual = 8.777e-05, No Iterations 10
smoothSolver:  Solving for h, Initial residual = 0.00679059, Final residual = 5.0752e-05, No Iterations 24
GAMG:  Solving for p, Initial residual = 0.0127476, Final residual = 7.44611e-05, No Iterations 2
GAMG:  Solving for p, Initial residual = 0.00264353, Final residual = 1.74819e-05, No Iterations 2
GAMG:  Solving for p, Initial residual = 0.00051661, Final residual = 3.46281e-06, No Iterations 2
time step continuity errors : sum local = 0.0226369, global = -4.78756e-08, cumulative = -0.385558
pressureControl: p max 3.26114e+07
pressureControl: p min 90503.6
ExecutionTime = 21.71 s  ClockTime = 22 s

Time = 66

Courant Number mean: 33642.5 max: 4.39783e+07
smoothSolver:  Solving for Ux, Initial residual = 0.00916692, Final residual = 8.59692e-05, No Iterations 10
smoothSolver:  Solving for Uy, Initial residual = 0.00226915, Final residual = 2.24124e-05, No Iterations 9
smoothSolver:  Solving for Uz, Initial residual = 0.00901864, Final residual = 7.47019e-05, No Iterations 10
smoothSolver:  Solving for h, Initial residual = 0.00664987, Final residual = 4.97018e-05, No Iterations 24
GAMG:  Solving for p, Initial residual = 0.0124883, Final residual = 7.06391e-05, No Iterations 2
GAMG:  Solving for p, Initial residual = 0.00245903, Final residual = 1.72864e-05, No Iterations 2
GAMG:  Solving for p, Initial residual = 0.000507608, Final residual = 3.51842e-06, No Iterations 2
time step continuity errors : sum local = 0.0228164, global = -9.95565e-06, cumulative = -0.385568
pressureControl: p max 3.07394e+07
pressureControl: p min 90519.9
ExecutionTime = 22.02 s  ClockTime = 22 s

Time = 67

Courant Number mean: 33611.3 max: 4.40231e+07
smoothSolver:  Solving for Ux, Initial residual = 0.00842727, Final residual = 7.25834e-05, No Iterations 10
smoothSolver:  Solving for Uy, Initial residual = 0.00209664, Final residual = 1.96586e-05, No Iterations 9
smoothSolver:  Solving for Uz, Initial residual = 0.00830593, Final residual = 6.67764e-05, No Iterations 10
smoothSolver:  Solving for h, Initial residual = 0.00651296, Final residual = 4.86741e-05, No Iterations 24
GAMG:  Solving for p, Initial residual = 0.0121515, Final residual = 6.74481e-05, No Iterations 2
GAMG:  Solving for p, Initial residual = 0.00229211, Final residual = 1.73822e-05, No Iterations 2
GAMG:  Solving for p, Initial residual = 0.000509261, Final residual = 3.66614e-06, No Iterations 2
time step continuity errors : sum local = 0.0236012, global = 1.13154e-05, cumulative = -0.385556
pressureControl: p max 2.89309e+07
pressureControl: p min 90527.2
ExecutionTime = 22.34 s  ClockTime = 22 s

Time = 68

Courant Number mean: 33581 max: 4.40673e+07
smoothSolver:  Solving for Ux, Initial residual = 0.00768495, Final residual = 6.15848e-05, No Iterations 10
smoothSolver:  Solving for Uy, Initial residual = 0.00192941, Final residual = 1.79394e-05, No Iterations 9
smoothSolver:  Solving for Uz, Initial residual = 0.00756338, Final residual = 6.12602e-05, No Iterations 10
smoothSolver:  Solving for h, Initial residual = 0.00637971, Final residual = 4.76692e-05, No Iterations 24
GAMG:  Solving for p, Initial residual = 0.0117917, Final residual = 6.35834e-05, No Iterations 2
GAMG:  Solving for p, Initial residual = 0.00212882, Final residual = 1.74617e-05, No Iterations 2
GAMG:  Solving for p, Initial residual = 0.000513466, Final residual = 3.8462e-06, No Iterations 2
time step continuity errors : sum local = 0.0245915, global = 3.47916e-05, cumulative = -0.385521
pressureControl: p max 2.72623e+07
pressureControl: p min 90534.3
ExecutionTime = 22.66 s  ClockTime = 23 s

Time = 69

Courant Number mean: 33551.9 max: 4.41109e+07
smoothSolver:  Solving for Ux, Initial residual = 0.00695641, Final residual = 5.54734e-05, No Iterations 10
smoothSolver:  Solving for Uy, Initial residual = 0.00177016, Final residual = 1.70937e-05, No Iterations 9
smoothSolver:  Solving for Uz, Initial residual = 0.00685406, Final residual = 5.23285e-05, No Iterations 10
smoothSolver:  Solving for h, Initial residual = 0.00624967, Final residual = 4.66861e-05, No Iterations 24
GAMG:  Solving for p, Initial residual = 0.0114098, Final residual = 5.88306e-05, No Iterations 2
GAMG:  Solving for p, Initial residual = 0.00195174, Final residual = 1.77781e-05, No Iterations 2
GAMG:  Solving for p, Initial residual = 0.000522574, Final residual = 4.19314e-06, No Iterations 2
time step continuity errors : sum local = 0.0266369, global = 5.32063e-05, cumulative = -0.385468
pressureControl: p max 2.56187e+07
pressureControl: p min 90543
ExecutionTime = 22.97 s  ClockTime = 23 s

Time = 70

Courant Number mean: 33523.9 max: 4.41538e+07
smoothSolver:  Solving for Ux, Initial residual = 0.00626557, Final residual = 5.1911e-05, No Iterations 10
smoothSolver:  Solving for Uy, Initial residual = 0.00161896, Final residual = 1.23918e-05, No Iterations 10
smoothSolver:  Solving for Uz, Initial residual = 0.00618179, Final residual = 5.93283e-05, No Iterations 9
smoothSolver:  Solving for h, Initial residual = 0.00612291, Final residual = 4.57277e-05, No Iterations 24
GAMG:  Solving for p, Initial residual = 0.0109959, Final residual = 5.49516e-05, No Iterations 2
GAMG:  Solving for p, Initial residual = 0.00177641, Final residual = 6.76373e-06, No Iterations 3
GAMG:  Solving for p, Initial residual = 0.000655962, Final residual = 2.11665e-06, No Iterations 2
time step continuity errors : sum local = 0.0133595, global = 8.81707e-05, cumulative = -0.38538
pressureControl: p max 2.39762e+07
pressureControl: p min 90543.3
ExecutionTime = 23.29 s  ClockTime = 23 s

Time = 71

Courant Number mean: 33496.3 max: 4.41975e+07
smoothSolver:  Solving for Ux, Initial residual = 0.00563071, Final residual = 4.67422e-05, No Iterations 10
smoothSolver:  Solving for Uy, Initial residual = 0.00147677, Final residual = 1.20641e-05, No Iterations 10
smoothSolver:  Solving for Uz, Initial residual = 0.005553, Final residual = 5.17716e-05, No Iterations 9
smoothSolver:  Solving for h, Initial residual = 0.00599908, Final residual = 4.47942e-05, No Iterations 24
GAMG:  Solving for p, Initial residual = 0.010594, Final residual = 4.91645e-05, No Iterations 2
GAMG:  Solving for p, Initial residual = 0.0015553, Final residual = 7.87201e-06, No Iterations 3
GAMG:  Solving for p, Initial residual = 0.000696745, Final residual = 2.23111e-06, No Iterations 2
time step continuity errors : sum local = 0.013995, global = 0.000109569, cumulative = -0.385271
pressureControl: p max 2.23075e+07
pressureControl: p min 45927.3
ExecutionTime = 23.62 s  ClockTime = 24 s

Time = 72

Courant Number mean: 33469.7 max: 4.42404e+07
smoothSolver:  Solving for Ux, Initial residual = 0.00503231, Final residual = 4.10955e-05, No Iterations 10
smoothSolver:  Solving for Uy, Initial residual = 0.00134169, Final residual = 1.18892e-05, No Iterations 10
smoothSolver:  Solving for Uz, Initial residual = 0.00495972, Final residual = 4.74668e-05, No Iterations 9
smoothSolver:  Solving for h, Initial residual = 0.00587818, Final residual = 4.38866e-05, No Iterations 24
GAMG:  Solving for p, Initial residual = 0.0101855, Final residual = 4.2194e-05, No Iterations 2
GAMG:  Solving for p, Initial residual = 0.00134834, Final residual = 8.0233e-06, No Iterations 3
GAMG:  Solving for p, Initial residual = 0.000747962, Final residual = 1.75887e-06, No Iterations 2
time step continuity errors : sum local = 0.0109675, global = 0.000107754, cumulative = -0.385163
pressureControl: p max 2.07051e+07
pressureControl: p min -1.5703e+06
ExecutionTime = 23.95 s  ClockTime = 24 s

Time = 73

Courant Number mean: 33443.9 max: 4.42826e+07
smoothSolver:  Solving for Ux, Initial residual = 0.00446292, Final residual = 3.72568e-05, No Iterations 10
smoothSolver:  Solving for Uy, Initial residual = 0.00121176, Final residual = 1.19514e-05, No Iterations 10
smoothSolver:  Solving for Uz, Initial residual = 0.00441719, Final residual = 3.35725e-05, No Iterations 10
smoothSolver:  Solving for h, Initial residual = 0.00575993, Final residual = 4.30031e-05, No Iterations 24
GAMG:  Solving for p, Initial residual = 0.00972098, Final residual = 4.31707e-05, No Iterations 2
GAMG:  Solving for p, Initial residual = 0.0013692, Final residual = 3.28057e-06, No Iterations 3
GAMG:  Solving for p, Initial residual = 0.000498916, Final residual = 9.56603e-07, No Iterations 2
time step continuity errors : sum local = 0.00593413, global = 6.55702e-05, cumulative = -0.385097
pressureControl: p min -2.48447e+06
ExecutionTime = 24.28 s  ClockTime = 24 s

Time = 74

Courant Number mean: 33418.6 max: 4.43241e+07
smoothSolver:  Solving for Ux, Initial residual = 0.00398116, Final residual = 3.61802e-05, No Iterations 10
smoothSolver:  Solving for Uy, Initial residual = 0.00109566, Final residual = 9.11474e-06, No Iterations 11
smoothSolver:  Solving for Uz, Initial residual = 0.0039386, Final residual = 3.32349e-05, No Iterations 10
smoothSolver:  Solving for h, Initial residual = 0.00564441, Final residual = 4.21456e-05, No Iterations 24
GAMG:  Solving for p, Initial residual = 0.00932467, Final residual = 4.86225e-05, No Iterations 2
GAMG:  Solving for p, Initial residual = 0.00140014, Final residual = 1.11377e-05, No Iterations 2
GAMG:  Solving for p, Initial residual = 0.000304992, Final residual = 2.34499e-06, No Iterations 2
time step continuity errors : sum local = 0.0144762, global = 0.000128521, cumulative = -0.384969
pressureControl: p min -3.73487e+06
ExecutionTime = 24.6 s  ClockTime = 25 s

Time = 75

Courant Number mean: 33394.5 max: 4.43662e+07
smoothSolver:  Solving for Ux, Initial residual = 0.00361018, Final residual = 3.57324e-05, No Iterations 10
smoothSolver:  Solving for Uy, Initial residual = 0.00100504, Final residual = 9.04789e-06, No Iterations 11
smoothSolver:  Solving for Uz, Initial residual = 0.00355697, Final residual = 3.29021e-05, No Iterations 10
smoothSolver:  Solving for h, Initial residual = 0.00553166, Final residual = 4.13161e-05, No Iterations 24
GAMG:  Solving for p, Initial residual = 0.00897768, Final residual = 4.34877e-05, No Iterations 2
GAMG:  Solving for p, Initial residual = 0.00128722, Final residual = 1.02924e-05, No Iterations 2
GAMG:  Solving for p, Initial residual = 0.000284427, Final residual = 2.17956e-06, No Iterations 2
time step continuity errors : sum local = 0.0133977, global = 8.07997e-05, cumulative = -0.384888
pressureControl: p min -4.4568e+06
ExecutionTime = 24.92 s  ClockTime = 25 s

Time = 76

Courant Number mean: 33373.4 max: 4.44077e+07
smoothSolver:  Solving for Ux, Initial residual = 0.00329783, Final residual = 2.63407e-05, No Iterations 11
smoothSolver:  Solving for Uy, Initial residual = 0.000926355, Final residual = 8.98007e-06, No Iterations 11
smoothSolver:  Solving for Uz, Initial residual = 0.00323871, Final residual = 3.23237e-05, No Iterations 10
smoothSolver:  Solving for h, Initial residual = 0.00542136, Final residual = 4.05153e-05, No Iterations 24
GAMG:  Solving for p, Initial residual = 0.0086583, Final residual = 4.02289e-05, No Iterations 2
GAMG:  Solving for p, Initial residual = 0.00121012, Final residual = 9.82653e-06, No Iterations 2
GAMG:  Solving for p, Initial residual = 0.00027142, Final residual = 2.07858e-06, No Iterations 2
time step continuity errors : sum local = 0.0127291, global = 6.38078e-05, cumulative = -0.384824
pressureControl: p min -5.02543e+06
ExecutionTime = 25.24 s  ClockTime = 25 s

Time = 77

Courant Number mean: 33355 max: 4.44489e+07
smoothSolver:  Solving for Ux, Initial residual = 0.00302891, Final residual = 2.56004e-05, No Iterations 11
smoothSolver:  Solving for Uy, Initial residual = 0.000859021, Final residual = 6.75949e-06, No Iterations 12
smoothSolver:  Solving for Uz, Initial residual = 0.00297189, Final residual = 2.37964e-05, No Iterations 11
smoothSolver:  Solving for h, Initial residual = 0.00531357, Final residual = 3.9742e-05, No Iterations 24
GAMG:  Solving for p, Initial residual = 0.00836604, Final residual = 4.08299e-05, No Iterations 2
GAMG:  Solving for p, Initial residual = 0.00119718, Final residual = 9.49706e-06, No Iterations 2
GAMG:  Solving for p, Initial residual = 0.000264592, Final residual = 2.03933e-06, No Iterations 2
time step continuity errors : sum local = 0.0124372, global = 9.96304e-05, cumulative = -0.384724
pressureControl: p min -5.65137e+06
ExecutionTime = 25.56 s  ClockTime = 26 s

Time = 78

Courant Number mean: 33337.6 max: 4.44908e+07
smoothSolver:  Solving for Ux, Initial residual = 0.00280407, Final residual = 2.48012e-05, No Iterations 11
smoothSolver:  Solving for Uy, Initial residual = 0.000800823, Final residual = 6.58839e-06, No Iterations 12
smoothSolver:  Solving for Uz, Initial residual = 0.00274418, Final residual = 2.30762e-05, No Iterations 11
smoothSolver:  Solving for h, Initial residual = 0.0052081, Final residual = 3.89928e-05, No Iterations 24
GAMG:  Solving for p, Initial residual = 0.00810795, Final residual = 3.82234e-05, No Iterations 2
GAMG:  Solving for p, Initial residual = 0.00114821, Final residual = 1.03013e-05, No Iterations 2
GAMG:  Solving for p, Initial residual = 0.000278376, Final residual = 2.33193e-06, No Iterations 2
time step continuity errors : sum local = 0.0141653, global = 0.000121357, cumulative = -0.384603
pressureControl: p min -5.881e+06
ExecutionTime = 25.87 s  ClockTime = 26 s

Time = 79

Courant Number mean: 33320.9 max: 4.45321e+07
smoothSolver:  Solving for Ux, Initial residual = 0.00260329, Final residual = 2.37922e-05, No Iterations 11
smoothSolver:  Solving for Uy, Initial residual = 0.000747789, Final residual = 6.37371e-06, No Iterations 12
smoothSolver:  Solving for Uz, Initial residual = 0.00254538, Final residual = 2.22747e-05, No Iterations 11
smoothSolver:  Solving for h, Initial residual = 0.00510479, Final residual = 3.8262e-05, No Iterations 24
GAMG:  Solving for p, Initial residual = 0.00787051, Final residual = 3.18225e-05, No Iterations 2
GAMG:  Solving for p, Initial residual = 0.00104414, Final residual = 3.10119e-06, No Iterations 3
GAMG:  Solving for p, Initial residual = 0.000353705, Final residual = 8.654e-07, No Iterations 2
time step continuity errors : sum local = 0.00523913, global = 5.47486e-05, cumulative = -0.384548
pressureControl: p min -5.45727e+06
ExecutionTime = 26.2 s  ClockTime = 26 s

Time = 80

[...]
ExecutionTime = 150.47 s  ClockTime = 151 s

Time = 475

Courant Number mean: 33423.8 max: 4.83085e+07
smoothSolver:  Solving for Ux, Initial residual = 0.00478223, Final residual = 4.45808e-05, No Iterations 9
smoothSolver:  Solving for Uy, Initial residual = 0.00132755, Final residual = 1.12085e-05, No Iterations 8
smoothSolver:  Solving for Uz, Initial residual = 0.00489926, Final residual = 4.06288e-05, No Iterations 9
smoothSolver:  Solving for h, Initial residual = 0.000117582, Final residual = 8.437e-07, No Iterations 24
GAMG:  Solving for p, Initial residual = 0.00544069, Final residual = 3.23958e-05, No Iterations 2
GAMG:  Solving for p, Initial residual = 0.00086159, Final residual = 6.28228e-06, No Iterations 2
GAMG:  Solving for p, Initial residual = 0.000189897, Final residual = 1.1957e-06, No Iterations 2
time step continuity errors : sum local = 0.00660706, global = 4.20994e-05, cumulative = -0.355016
pressureControl: p min -9.96021e+06
ExecutionTime = 150.8 s  ClockTime = 151 s

Time = 476

Courant Number mean: 33424.8 max: 4.83087e+07
smoothSolver:  Solving for Ux, Initial residual = 0.00478135, Final residual = 4.45812e-05, No Iterations 9
smoothSolver:  Solving for Uy, Initial residual = 0.00132734, Final residual = 1.12031e-05, No Iterations 8
smoothSolver:  Solving for Uz, Initial residual = 0.00489862, Final residual = 4.06029e-05, No Iterations 9
smoothSolver:  Solving for h, Initial residual = 0.000117383, Final residual = 8.42308e-07, No Iterations 24
GAMG:  Solving for p, Initial residual = 0.0054391, Final residual = 3.23966e-05, No Iterations 2
GAMG:  Solving for p, Initial residual = 0.00086134, Final residual = 6.27888e-06, No Iterations 2
GAMG:  Solving for p, Initial residual = 0.000189862, Final residual = 1.19424e-06, No Iterations 2
time step continuity errors : sum local = 0.0065995, global = 4.18131e-05, cumulative = -0.354974
pressureControl: p min -9.95897e+06
ExecutionTime = 151.12 s  ClockTime = 151 s

Time = 477

Courant Number mean: 33425.9 max: 4.83089e+07
smoothSolver:  Solving for Ux, Initial residual = 0.00478134, Final residual = 4.45614e-05, No Iterations 9
smoothSolver:  Solving for Uy, Initial residual = 0.00132717, Final residual = 1.11991e-05, No Iterations 8
smoothSolver:  Solving for Uz, Initial residual = 0.00489899, Final residual = 4.06123e-05, No Iterations 9
smoothSolver:  Solving for h, Initial residual = 0.000117186, Final residual = 8.409e-07, No Iterations 24
GAMG:  Solving for p, Initial residual = 0.00543813, Final residual = 3.23976e-05, No Iterations 2
GAMG:  Solving for p, Initial residual = 0.000861502, Final residual = 6.27962e-06, No Iterations 2
GAMG:  Solving for p, Initial residual = 0.000189857, Final residual = 1.19543e-06, No Iterations 2
time step continuity errors : sum local = 0.00660625, global = 4.19261e-05, cumulative = -0.354932
pressureControl: p min -9.95821e+06
ExecutionTime = 151.43 s  ClockTime = 151 s

Time = 478

Courant Number mean: 33427 max: 4.83091e+07
smoothSolver:  Solving for Ux, Initial residual = 0.00478074, Final residual = 4.45654e-05, No Iterations 9
smoothSolver:  Solving for Uy, Initial residual = 0.00132704, Final residual = 1.11925e-05, No Iterations 8
smoothSolver:  Solving for Uz, Initial residual = 0.0048989, Final residual = 4.05768e-05, No Iterations 9
smoothSolver:  Solving for h, Initial residual = 0.000116989, Final residual = 8.3952e-07, No Iterations 24
GAMG:  Solving for p, Initial residual = 0.00543676, Final residual = 3.23982e-05, No Iterations 2
GAMG:  Solving for p, Initial residual = 0.000861503, Final residual = 6.27592e-06, No Iterations 2
GAMG:  Solving for p, Initial residual = 0.000189847, Final residual = 1.19378e-06, No Iterations 2
time step continuity errors : sum local = 0.00659765, global = 4.16184e-05, cumulative = -0.354891
pressureControl: p min -9.95677e+06
ExecutionTime = 151.74 s  ClockTime = 152 s

Time = 479

Courant Number mean: 33428 max: 4.83093e+07
smoothSolver:  Solving for Ux, Initial residual = 0.00478046, Final residual = 4.45437e-05, No Iterations 9
smoothSolver:  Solving for Uy, Initial residual = 0.00132684, Final residual = 1.11878e-05, No Iterations 8
smoothSolver:  Solving for Uz, Initial residual = 0.00489866, Final residual = 4.0589e-05, No Iterations 9
smoothSolver:  Solving for h, Initial residual = 0.000116794, Final residual = 8.38123e-07, No Iterations 24
GAMG:  Solving for p, Initial residual = 0.00543505, Final residual = 3.23984e-05, No Iterations 2
GAMG:  Solving for p, Initial residual = 0.000861183, Final residual = 6.27664e-06, No Iterations 2
GAMG:  Solving for p, Initial residual = 0.000189778, Final residual = 1.19503e-06, No Iterations 2
time step continuity errors : sum local = 0.00660479, global = 4.17381e-05, cumulative = -0.354849
pressureControl: p min -9.9561e+06
ExecutionTime = 152.06 s  ClockTime = 152 s

Time = 480

Courant Number mean: 33429.1 max: 4.83095e+07
smoothSolver:  Solving for Ux, Initial residual = 0.00477949, Final residual = 4.45429e-05, No Iterations 9
smoothSolver:  Solving for Uy, Initial residual = 0.0013266, Final residual = 1.1183e-05, No Iterations 8
smoothSolver:  Solving for Uz, Initial residual = 0.00489783, Final residual = 4.05667e-05, No Iterations 9
smoothSolver:  Solving for h, Initial residual = 0.000116598, Final residual = 8.3676e-07, No Iterations 24
GAMG:  Solving for p, Initial residual = 0.00543343, Final residual = 3.23995e-05, No Iterations 2
GAMG:  Solving for p, Initial residual = 0.000860865, Final residual = 6.27321e-06, No Iterations 2
GAMG:  Solving for p, Initial residual = 0.00018974, Final residual = 1.19364e-06, No Iterations 2
time step continuity errors : sum local = 0.00659756, global = 4.14593e-05, cumulative = -0.354807
pressureControl: p min -9.95487e+06
ExecutionTime = 152.37 s  ClockTime = 152 s

Time = 481

Courant Number mean: 33430.2 max: 4.83097e+07
smoothSolver:  Solving for Ux, Initial residual = 0.00477951, Final residual = 4.45245e-05, No Iterations 9
smoothSolver:  Solving for Uy, Initial residual = 0.00132644, Final residual = 1.1179e-05, No Iterations 8
smoothSolver:  Solving for Uz, Initial residual = 0.00489831, Final residual = 4.05728e-05, No Iterations 9
smoothSolver:  Solving for h, Initial residual = 0.000116405, Final residual = 8.35383e-07, No Iterations 24
GAMG:  Solving for p, Initial residual = 0.00543261, Final residual = 3.24007e-05, No Iterations 2
GAMG:  Solving for p, Initial residual = 0.000861115, Final residual = 6.27387e-06, No Iterations 2
GAMG:  Solving for p, Initial residual = 0.000189743, Final residual = 1.19476e-06, No Iterations 2
time step continuity errors : sum local = 0.00660398, global = 4.15657e-05, cumulative = -0.354766
pressureControl: p min -9.95425e+06
ExecutionTime = 152.68 s  ClockTime = 153 s

Time = 482

Courant Number mean: 33431.2 max: 4.83099e+07
smoothSolver:  Solving for Ux, Initial residual = 0.004779, Final residual = 4.45285e-05, No Iterations 9
smoothSolver:  Solving for Uy, Initial residual = 0.00132633, Final residual = 1.11725e-05, No Iterations 8
smoothSolver:  Solving for Uz, Initial residual = 0.00489835, Final residual = 4.05383e-05, No Iterations 9
smoothSolver:  Solving for h, Initial residual = 0.000116211, Final residual = 8.34031e-07, No Iterations 24
GAMG:  Solving for p, Initial residual = 0.00543128, Final residual = 3.24017e-05, No Iterations 2
GAMG:  Solving for p, Initial residual = 0.000861159, Final residual = 6.27016e-06, No Iterations 2
GAMG:  Solving for p, Initial residual = 0.000189741, Final residual = 1.19311e-06, No Iterations 2
time step continuity errors : sum local = 0.00659543, global = 4.12591e-05, cumulative = -0.354725
pressureControl: p min -9.95286e+06
ExecutionTime = 153.03 s  ClockTime = 153 s

Time = 483

Courant Number mean: 33432.3 max: 4.83101e+07
smoothSolver:  Solving for Ux, Initial residual = 0.00477872, Final residual = 4.45064e-05, No Iterations 9
smoothSolver:  Solving for Uy, Initial residual = 0.00132613, Final residual = 1.11679e-05, No Iterations 8
smoothSolver:  Solving for Uz, Initial residual = 0.00489811, Final residual = 4.0551e-05, No Iterations 9
smoothSolver:  Solving for h, Initial residual = 0.000116019, Final residual = 8.32662e-07, No Iterations 24
GAMG:  Solving for p, Initial residual = 0.00542956, Final residual = 3.2402e-05, No Iterations 2
GAMG:  Solving for p, Initial residual = 0.000860825, Final residual = 6.27093e-06, No Iterations 2
GAMG:  Solving for p, Initial residual = 0.000189672, Final residual = 1.19439e-06, No Iterations 2
time step continuity errors : sum local = 0.00660269, global = 4.13826e-05, cumulative = -0.354683
pressureControl: p min -9.95214e+06
ExecutionTime = 153.38 s  ClockTime = 153 s

Time = 484

Courant Number mean: 33433.3 max: 4.83103e+07
smoothSolver:  Solving for Ux, Initial residual = 0.00477777, Final residual = 4.45059e-05, No Iterations 9
smoothSolver:  Solving for Uy, Initial residual = 0.0013259, Final residual = 1.11631e-05, No Iterations 8
smoothSolver:  Solving for Uz, Initial residual = 0.0048973, Final residual = 4.05283e-05, No Iterations 9
smoothSolver:  Solving for h, Initial residual = 0.000115827, Final residual = 8.31326e-07, No Iterations 24
GAMG:  Solving for p, Initial residual = 0.00542798, Final residual = 3.24032e-05, No Iterations 2
GAMG:  Solving for p, Initial residual = 0.00086052, Final residual = 6.26754e-06, No Iterations 2
GAMG:  Solving for p, Initial residual = 0.000189636, Final residual = 1.193e-06, No Iterations 2
time step continuity errors : sum local = 0.00659549, global = 4.11063e-05, cumulative = -0.354642
pressureControl: p min -9.95076e+06
ExecutionTime = 153.7 s  ClockTime = 154 s

Time = 485

Courant Number mean: 33434.4 max: 4.83105e+07
smoothSolver:  Solving for Ux, Initial residual = 0.0047778, Final residual = 4.44872e-05, No Iterations 9
smoothSolver:  Solving for Uy, Initial residual = 0.00132575, Final residual = 1.11593e-05, No Iterations 8
smoothSolver:  Solving for Uz, Initial residual = 0.00489778, Final residual = 4.05352e-05, No Iterations 9
smoothSolver:  Solving for h, Initial residual = 0.000115637, Final residual = 8.29975e-07, No Iterations 24
GAMG:  Solving for p, Initial residual = 0.00542717, Final residual = 3.24045e-05, No Iterations 2
GAMG:  Solving for p, Initial residual = 0.000860767, Final residual = 6.26825e-06, No Iterations 2
GAMG:  Solving for p, Initial residual = 0.000189642, Final residual = 1.19415e-06, No Iterations 2
time step continuity errors : sum local = 0.00660203, global = 4.12174e-05, cumulative = -0.354601
pressureControl: p min -9.94992e+06
ExecutionTime = 154.02 s  ClockTime = 154 s

Time = 486

Courant Number mean: 33435.5 max: 4.83107e+07
smoothSolver:  Solving for Ux, Initial residual = 0.00477729, Final residual = 4.44915e-05, No Iterations 9
smoothSolver:  Solving for Uy, Initial residual = 0.00132564, Final residual = 1.11529e-05, No Iterations 8
smoothSolver:  Solving for Uz, Initial residual = 0.00489783, Final residual = 4.05002e-05, No Iterations 9
smoothSolver:  Solving for h, Initial residual = 0.000115446, Final residual = 8.28649e-07, No Iterations 24
GAMG:  Solving for p, Initial residual = 0.00542588, Final residual = 3.24055e-05, No Iterations 2
GAMG:  Solving for p, Initial residual = 0.000860816, Final residual = 6.26457e-06, No Iterations 2
GAMG:  Solving for p, Initial residual = 0.000189642, Final residual = 1.1925e-06, No Iterations 2
time step continuity errors : sum local = 0.0065935, global = 4.09135e-05, cumulative = -0.35456
pressureControl: p min -9.94831e+06
ExecutionTime = 154.32 s  ClockTime = 154 s

Time = 487

Courant Number mean: 33436.5 max: 4.83109e+07
smoothSolver:  Solving for Ux, Initial residual = 0.00477702, Final residual = 4.44693e-05, No Iterations 9
smoothSolver:  Solving for Uy, Initial residual = 0.00132545, Final residual = 1.11483e-05, No Iterations 8
smoothSolver:  Solving for Uz, Initial residual = 0.00489757, Final residual = 4.05132e-05, No Iterations 9
smoothSolver:  Solving for h, Initial residual = 0.000115258, Final residual = 8.27304e-07, No Iterations 24
GAMG:  Solving for p, Initial residual = 0.00542416, Final residual = 3.24059e-05, No Iterations 2
GAMG:  Solving for p, Initial residual = 0.000860471, Final residual = 6.26539e-06, No Iterations 2
GAMG:  Solving for p, Initial residual = 0.000189573, Final residual = 1.19379e-06, No Iterations 2
time step continuity errors : sum local = 0.00660081, global = 4.10403e-05, cumulative = -0.354519
pressureControl: p min -9.94735e+06
ExecutionTime = 154.66 s  ClockTime = 155 s

Time = 488

Courant Number mean: 33437.6 max: 4.83111e+07
smoothSolver:  Solving for Ux, Initial residual = 0.00477606, Final residual = 4.44687e-05, No Iterations 9
smoothSolver:  Solving for Uy, Initial residual = 0.00132522, Final residual = 1.11437e-05, No Iterations 8
smoothSolver:  Solving for Uz, Initial residual = 0.00489674, Final residual = 4.04911e-05, No Iterations 9
smoothSolver:  Solving for h, Initial residual = 0.000115069, Final residual = 8.25993e-07, No Iterations 24
GAMG:  Solving for p, Initial residual = 0.00542259, Final residual = 3.24072e-05, No Iterations 2
GAMG:  Solving for p, Initial residual = 0.000860159, Final residual = 6.26203e-06, No Iterations 2
GAMG:  Solving for p, Initial residual = 0.000189538, Final residual = 1.19242e-06, No Iterations 2
time step continuity errors : sum local = 0.00659372, global = 4.0768e-05, cumulative = -0.354478
pressureControl: p min -9.94573e+06
ExecutionTime = 154.97 s  ClockTime = 155 s

Time = 489

Courant Number mean: 33438.6 max: 4.83112e+07
smoothSolver:  Solving for Ux, Initial residual = 0.0047761, Final residual = 4.44502e-05, No Iterations 9
smoothSolver:  Solving for Uy, Initial residual = 0.00132507, Final residual = 1.11401e-05, No Iterations 8
smoothSolver:  Solving for Uz, Initial residual = 0.00489723, Final residual = 4.04975e-05, No Iterations 9
smoothSolver:  Solving for h, Initial residual = 0.000114883, Final residual = 8.24665e-07, No Iterations 24
GAMG:  Solving for p, Initial residual = 0.00542182, Final residual = 3.24086e-05, No Iterations 2
GAMG:  Solving for p, Initial residual = 0.000860426, Final residual = 6.26278e-06, No Iterations 2
GAMG:  Solving for p, Initial residual = 0.000189546, Final residual = 1.19357e-06, No Iterations 2
time step continuity errors : sum local = 0.00660025, global = 4.08812e-05, cumulative = -0.354437
pressureControl: p min -9.94467e+06
ExecutionTime = 155.32 s  ClockTime = 155 s

Time = 490

Courant Number mean: 33439.7 max: 4.83114e+07
smoothSolver:  Solving for Ux, Initial residual = 0.00477562, Final residual = 4.44544e-05, No Iterations 9
smoothSolver:  Solving for Uy, Initial residual = 0.00132497, Final residual = 1.11337e-05, No Iterations 8
smoothSolver:  Solving for Uz, Initial residual = 0.0048973, Final residual = 4.0463e-05, No Iterations 9
smoothSolver:  Solving for h, Initial residual = 0.000114695, Final residual = 8.23364e-07, No Iterations 24
GAMG:  Solving for p, Initial residual = 0.00542056, Final residual = 3.24097e-05, No Iterations 2
GAMG:  Solving for p, Initial residual = 0.000860486, Final residual = 6.25914e-06, No Iterations 2
GAMG:  Solving for p, Initial residual = 0.000189549, Final residual = 1.19194e-06, No Iterations 2
time step continuity errors : sum local = 0.00659179, global = 4.05795e-05, cumulative = -0.354397
pressureControl: p min -9.94282e+06
ExecutionTime = 155.64 s  ClockTime = 156 s

Time = 491

Courant Number mean: 33440.7 max: 4.83116e+07
smoothSolver:  Solving for Ux, Initial residual = 0.00477537, Final residual = 4.44321e-05, No Iterations 9
smoothSolver:  Solving for Uy, Initial residual = 0.00132478, Final residual = 1.11293e-05, No Iterations 8
smoothSolver:  Solving for Uz, Initial residual = 0.00489707, Final residual = 4.04763e-05, No Iterations 9
smoothSolver:  Solving for h, Initial residual = 0.000114511, Final residual = 8.22044e-07, No Iterations 24
GAMG:  Solving for p, Initial residual = 0.00541887, Final residual = 3.24102e-05, No Iterations 2
GAMG:  Solving for p, Initial residual = 0.000860158, Final residual = 6.25999e-06, No Iterations 2
GAMG:  Solving for p, Initial residual = 0.000189482, Final residual = 1.19324e-06, No Iterations 2
time step continuity errors : sum local = 0.00659917, global = 4.0711e-05, cumulative = -0.354356
pressureControl: p min -9.94158e+06
ExecutionTime = 155.97 s  ClockTime = 156 s

Time = 492

Courant Number mean: 33441.8 max: 4.83118e+07
smoothSolver:  Solving for Ux, Initial residual = 0.00477443, Final residual = 4.44318e-05, No Iterations 9
smoothSolver:  Solving for Uy, Initial residual = 0.00132456, Final residual = 1.11247e-05, No Iterations 8
smoothSolver:  Solving for Uz, Initial residual = 0.00489628, Final residual = 4.04536e-05, No Iterations 9
smoothSolver:  Solving for h, Initial residual = 0.000114325, Final residual = 8.2076e-07, No Iterations 24
GAMG:  Solving for p, Initial residual = 0.00541733, Final residual = 3.24114e-05, No Iterations 2
GAMG:  Solving for p, Initial residual = 0.000859862, Final residual = 6.25667e-06, No Iterations 2
GAMG:  Solving for p, Initial residual = 0.000189451, Final residual = 1.19186e-06, No Iterations 2
time step continuity errors : sum local = 0.00659206, global = 4.04394e-05, cumulative = -0.354316
pressureControl: p min -9.93962e+06
ExecutionTime = 156.29 s  ClockTime = 156 s

Time = 493

Courant Number mean: 33442.8 max: 4.8312e+07
smoothSolver:  Solving for Ux, Initial residual = 0.00477448, Final residual = 4.44129e-05, No Iterations 9
smoothSolver:  Solving for Uy, Initial residual = 0.00132442, Final residual = 1.11213e-05, No Iterations 8
smoothSolver:  Solving for Uz, Initial residual = 0.00489677, Final residual = 4.04612e-05, No Iterations 9
smoothSolver:  Solving for h, Initial residual = 0.000114142, Final residual = 8.19457e-07, No Iterations 24
GAMG:  Solving for p, Initial residual = 0.00541656, Final residual = 3.24128e-05, No Iterations 2
GAMG:  Solving for p, Initial residual = 0.000860128, Final residual = 6.25746e-06, No Iterations 2
GAMG:  Solving for p, Initial residual = 0.00018946, Final residual = 1.19302e-06, No Iterations 2
time step continuity errors : sum local = 0.00659869, global = 4.05552e-05, cumulative = -0.354275
pressureControl: p min -9.93817e+06
ExecutionTime = 156.58 s  ClockTime = 157 s

Time = 494

Courant Number mean: 33443.9 max: 4.83122e+07
smoothSolver:  Solving for Ux, Initial residual = 0.004774, Final residual = 4.44174e-05, No Iterations 9
smoothSolver:  Solving for Uy, Initial residual = 0.00132431, Final residual = 1.11149e-05, No Iterations 8
smoothSolver:  Solving for Uz, Initial residual = 0.00489684, Final residual = 4.0426e-05, No Iterations 9
smoothSolver:  Solving for h, Initial residual = 0.000113959, Final residual = 8.18181e-07, No Iterations 24
GAMG:  Solving for p, Initial residual = 0.00541532, Final residual = 3.2414e-05, No Iterations 2
GAMG:  Solving for p, Initial residual = 0.000860191, Final residual = 6.25382e-06, No Iterations 2
GAMG:  Solving for p, Initial residual = 0.000189463, Final residual = 1.1914e-06, No Iterations 2
time step continuity errors : sum local = 0.00659026, global = 4.02586e-05, cumulative = -0.354235
pressureControl: p min -9.93591e+06
ExecutionTime = 156.89 s  ClockTime = 157 s

Time = 495

Courant Number mean: 33444.9 max: 4.83124e+07
smoothSolver:  Solving for Ux, Initial residual = 0.00477375, Final residual = 4.43951e-05, No Iterations 9
smoothSolver:  Solving for Uy, Initial residual = 0.00132413, Final residual = 1.11106e-05, No Iterations 8
smoothSolver:  Solving for Uz, Initial residual = 0.00489657, Final residual = 4.04395e-05, No Iterations 9
smoothSolver:  Solving for h, Initial residual = 0.000113777, Final residual = 8.16886e-07, No Iterations 24
GAMG:  Solving for p, Initial residual = 0.0054136, Final residual = 3.24143e-05, No Iterations 2
