/*---------------------------------------------------------------------------*\
  =========                 |
  \\      /  F ield         | OpenFOAM: The Open Source CFD Toolbox
   \\    /   O peration     | Website:  https://openfoam.org
    \\  /    A nd           | Version:  7
     \\/     M anipulation  |
\*---------------------------------------------------------------------------*/
Build  : 7-3bcbaf946ae9
Exec   : polymSimpleFoam
Date   : May 02 2022
Time   : 20:27:36
Host   : "anuar"
PID    : 62539
I/O    : uncollated
Case   : /home/anuar/OpenFOAM/anuar-7/run/tests/PolymerK/PruebaMalla2D
nProcs : 1
sigFpe : Enabling floating point exception trapping (FOAM_SIGFPE).
fileModificationChecking : Monitoring run-time modified files using timeStampMaster (fileModificationSkew 10)
allowSystemOperations : Allowing user-supplied system call operations

// * * * * * * * * * * * * * * * * * * * * * * * * * * * * * * * * * * * * * //
Create time

Create mesh for time = 0


SIMPLE: Convergence criteria found
        p: tolerance 0.0001
        U: tolerance 0.0001
        h: tolerance 0.001

Reading thermophysical properties

Selecting thermodynamics package 
{
    type            heRhoThermo;
    mixture         pureMixture;
    transport       polymerK;
    thermo          hConst;
    equationOfState rhoConst;
    specie          specie;
    energy          sensibleEnthalpy;
}

Reading field U

Reading/calculating face flux field phi

pressureControl
    pMax 150000
    pMin 10000

Creating turbulence model

Selecting turbulence model type laminar
Selecting laminar stress model Stokes
No MRF models present

No finite volume options present

Starting time loop

Time = 1

smoothSolver:  Solving for Uy, Initial residual = 1, Final residual = 0.0615808, No Iterations 1
smoothSolver:  Solving for Uz, Initial residual = 1, Final residual = 0.0522618, No Iterations 2
smoothSolver:  Solving for h, Initial residual = 1, Final residual = 0.0238826, No Iterations 2
GAMG:  Solving for p, Initial residual = 1, Final residual = 0.0912557, No Iterations 6
time step continuity errors : sum local = 4.45122, global = -0.398559, cumulative = -0.398559
ExecutionTime = 0.01 s  ClockTime = 0 s

Time = 2

smoothSolver:  Solving for Uy, Initial residual = 0.583848, Final residual = 0.0411434, No Iterations 2
smoothSolver:  Solving for Uz, Initial residual = 0.695663, Final residual = 0.0553378, No Iterations 2
smoothSolver:  Solving for h, Initial residual = 0.215322, Final residual = 0.00846601, No Iterations 2
GAMG:  Solving for p, Initial residual = 0.0687774, Final residual = 0.00413743, No Iterations 4
time step continuity errors : sum local = 8.68976, global = 0.532899, cumulative = 0.134341
ExecutionTime = 0.01 s  ClockTime = 0 s

Time = 3

smoothSolver:  Solving for Uy, Initial residual = 0.547664, Final residual = 0.0420351, No Iterations 2
smoothSolver:  Solving for Uz, Initial residual = 0.210883, Final residual = 0.0167067, No Iterations 2
smoothSolver:  Solving for h, Initial residual = 0.11318, Final residual = 0.00572069, No Iterations 2
GAMG:  Solving for p, Initial residual = 0.0805717, Final residual = 0.00211156, No Iterations 6
time step continuity errors : sum local = 3.70295, global = 0.327639, cumulative = 0.46198
ExecutionTime = 0.01 s  ClockTime = 0 s

Time = 4

smoothSolver:  Solving for Uy, Initial residual = 0.297625, Final residual = 0.0233952, No Iterations 2
smoothSolver:  Solving for Uz, Initial residual = 0.0379891, Final residual = 0.0025929, No Iterations 2
smoothSolver:  Solving for h, Initial residual = 0.0760205, Final residual = 0.00440869, No Iterations 2
GAMG:  Solving for p, Initial residual = 0.542501, Final residual = 0.0271677, No Iterations 4
time step continuity errors : sum local = 8.06877, global = 1.49937, cumulative = 1.96135
ExecutionTime = 0.02 s  ClockTime = 0 s

Time = 5

smoothSolver:  Solving for Uy, Initial residual = 0.10463, Final residual = 0.00696352, No Iterations 2
smoothSolver:  Solving for Uz, Initial residual = 0.132895, Final residual = 0.0104909, No Iterations 2
smoothSolver:  Solving for h, Initial residual = 0.0577171, Final residual = 0.00361869, No Iterations 2
GAMG:  Solving for p, Initial residual = 0.153848, Final residual = 0.00642285, No Iterations 4
time step continuity errors : sum local = 7.91837, global = -0.908107, cumulative = 1.05324
ExecutionTime = 0.02 s  ClockTime = 0 s

Time = 6

smoothSolver:  Solving for Uy, Initial residual = 0.271174, Final residual = 0.0206488, No Iterations 2
smoothSolver:  Solving for Uz, Initial residual = 0.155558, Final residual = 0.0122134, No Iterations 2
smoothSolver:  Solving for h, Initial residual = 0.0467079, Final residual = 0.00307403, No Iterations 2
GAMG:  Solving for p, Initial residual = 0.184058, Final residual = 0.00973086, No Iterations 4
time step continuity errors : sum local = 9.89494, global = -1.16459, cumulative = -0.11135
ExecutionTime = 0.02 s  ClockTime = 0 s

Time = 7

smoothSolver:  Solving for Uy, Initial residual = 0.380205, Final residual = 0.0295942, No Iterations 2
smoothSolver:  Solving for Uz, Initial residual = 0.056242, Final residual = 0.00405356, No Iterations 2
smoothSolver:  Solving for h, Initial residual = 0.0392523, Final residual = 0.00267235, No Iterations 2
GAMG:  Solving for p, Initial residual = 0.490394, Final residual = 0.0262361, No Iterations 4
time step continuity errors : sum local = 7.08451, global = -0.803833, cumulative = -0.915183
ExecutionTime = 0.03 s  ClockTime = 0 s

Time = 8

smoothSolver:  Solving for Uy, Initial residual = 0.310216, Final residual = 0.0218615, No Iterations 2
smoothSolver:  Solving for Uz, Initial residual = 0.141625, Final residual = 0.0109454, No Iterations 2
smoothSolver:  Solving for h, Initial residual = 0.0339696, Final residual = 0.00236589, No Iterations 2
GAMG:  Solving for p, Initial residual = 0.162172, Final residual = 0.00621661, No Iterations 4
time step continuity errors : sum local = 4.86913, global = 0.548795, cumulative = -0.366388
ExecutionTime = 0.03 s  ClockTime = 0 s

Time = 9

smoothSolver:  Solving for Uy, Initial residual = 0.286582, Final residual = 0.0194137, No Iterations 2
smoothSolver:  Solving for Uz, Initial residual = 0.0754044, Final residual = 0.00586141, No Iterations 2
smoothSolver:  Solving for h, Initial residual = 0.0298343, Final residual = 0.00211365, No Iterations 2
GAMG:  Solving for p, Initial residual = 0.226556, Final residual = 0.022544, No Iterations 4
time step continuity errors : sum local = 14.7629, global = 0.251494, cumulative = -0.114894
ExecutionTime = 0.03 s  ClockTime = 0 s

Time = 10

smoothSolver:  Solving for Uy, Initial residual = 0.232418, Final residual = 0.0180431, No Iterations 2
smoothSolver:  Solving for Uz, Initial residual = 0.0225944, Final residual = 0.00159838, No Iterations 2
smoothSolver:  Solving for h, Initial residual = 0.0263588, Final residual = 0.00189451, No Iterations 2
GAMG:  Solving for p, Initial residual = 0.633799, Final residual = 0.0244899, No Iterations 4
time step continuity errors : sum local = 4.39474, global = 0.435582, cumulative = 0.320688
ExecutionTime = 0.04 s  ClockTime = 0 s

Time = 11

smoothSolver:  Solving for Uy, Initial residual = 0.149407, Final residual = 0.0113666, No Iterations 2
smoothSolver:  Solving for Uz, Initial residual = 0.0626347, Final residual = 0.00488866, No Iterations 2
smoothSolver:  Solving for h, Initial residual = 0.0235743, Final residual = 0.00171522, No Iterations 2
GAMG:  Solving for p, Initial residual = 0.20299, Final residual = 0.0143415, No Iterations 3
time step continuity errors : sum local = 6.2947, global = -0.23015, cumulative = 0.0905373
ExecutionTime = 0.04 s  ClockTime = 0 s

Time = 12

smoothSolver:  Solving for Uy, Initial residual = 0.111332, Final residual = 0.00783268, No Iterations 2
smoothSolver:  Solving for Uz, Initial residual = 0.0462984, Final residual = 0.00360908, No Iterations 2
smoothSolver:  Solving for h, Initial residual = 0.021283, Final residual = 0.00156446, No Iterations 2
GAMG:  Solving for p, Initial residual = 0.286192, Final residual = 0.0262278, No Iterations 3
time step continuity errors : sum local = 8.80995, global = -1.3212, cumulative = -1.23066
ExecutionTime = 0.04 s  ClockTime = 0 s

Time = 13

smoothSolver:  Solving for Uy, Initial residual = 0.0930474, Final residual = 0.00613275, No Iterations 2
smoothSolver:  Solving for Uz, Initial residual = 0.0141637, Final residual = 0.000946181, No Iterations 2
smoothSolver:  Solving for h, Initial residual = 0.0193727, Final residual = 0.00143694, No Iterations 2
GAMG:  Solving for p, Initial residual = 0.545285, Final residual = 0.0491808, No Iterations 3
time step continuity errors : sum local = 7.8389, global = -1.00724, cumulative = -2.23791
ExecutionTime = 0.05 s  ClockTime = 0 s

Time = 14

smoothSolver:  Solving for Uy, Initial residual = 0.0961847, Final residual = 0.00704524, No Iterations 2
smoothSolver:  Solving for Uz, Initial residual = 0.042218, Final residual = 0.00321201, No Iterations 2
smoothSolver:  Solving for h, Initial residual = 0.017776, Final residual = 0.00132905, No Iterations 2
GAMG:  Solving for p, Initial residual = 0.228545, Final residual = 0.00884409, No Iterations 4
time step continuity errors : sum local = 2.73611, global = 0.0691832, cumulative = -2.16872
ExecutionTime = 0.05 s  ClockTime = 0 s

Time = 15

smoothSolver:  Solving for Uy, Initial residual = 0.110419, Final residual = 0.00801777, No Iterations 2
smoothSolver:  Solving for Uz, Initial residual = 0.0332876, Final residual = 0.00253754, No Iterations 2
smoothSolver:  Solving for h, Initial residual = 0.0164152, Final residual = 0.00123609, No Iterations 2
GAMG:  Solving for p, Initial residual = 0.24276, Final residual = 0.014133, No Iterations 3
time step continuity errors : sum local = 3.96606, global = 0.78557, cumulative = -1.38315
ExecutionTime = 0.05 s  ClockTime = 0 s

Time = 16

smoothSolver:  Solving for Uy, Initial residual = 0.0894532, Final residual = 0.00598403, No Iterations 2
smoothSolver:  Solving for Uz, Initial residual = 0.00768009, Final residual = 0.000481497, No Iterations 2
smoothSolver:  Solving for h, Initial residual = 0.0152381, Final residual = 0.00115455, No Iterations 2
GAMG:  Solving for p, Initial residual = 0.485535, Final residual = 0.0344233, No Iterations 3
time step continuity errors : sum local = 4.50945, global = 0.567469, cumulative = -0.815683
ExecutionTime = 0.06 s  ClockTime = 0 s

Time = 17

smoothSolver:  Solving for Uy, Initial residual = 0.0739962, Final residual = 0.00488054, No Iterations 2
smoothSolver:  Solving for Uz, Initial residual = 0.0196595, Final residual = 0.00147597, No Iterations 2
smoothSolver:  Solving for h, Initial residual = 0.0141979, Final residual = 0.00108155, No Iterations 2
GAMG:  Solving for p, Initial residual = 0.343556, Final residual = 0.0235291, No Iterations 3
time step continuity errors : sum local = 3.59867, global = 0.202178, cumulative = -0.613506
ExecutionTime = 0.06 s  ClockTime = 0 s

Time = 18

smoothSolver:  Solving for Uy, Initial residual = 0.0671241, Final residual = 0.00483656, No Iterations 2
smoothSolver:  Solving for Uz, Initial residual = 0.0205247, Final residual = 0.00157171, No Iterations 2
smoothSolver:  Solving for h, Initial residual = 0.0132779, Final residual = 0.00101612, No Iterations 2
GAMG:  Solving for p, Initial residual = 0.30934, Final residual = 0.0275612, No Iterations 3
time step continuity errors : sum local = 3.95722, global = -0.523294, cumulative = -1.1368
ExecutionTime = 0.06 s  ClockTime = 0 s

Time = 19

smoothSolver:  Solving for Uy, Initial residual = 0.0474823, Final residual = 0.00330873, No Iterations 2
smoothSolver:  Solving for Uz, Initial residual = 0.00859011, Final residual = 0.000605615, No Iterations 2
smoothSolver:  Solving for h, Initial residual = 0.0124692, Final residual = 0.000958425, No Iterations 2
GAMG:  Solving for p, Initial residual = 0.657263, Final residual = 0.0458852, No Iterations 3
time step continuity errors : sum local = 2.9918, global = -0.176408, cumulative = -1.31321
ExecutionTime = 0.07 s  ClockTime = 0 s

Time = 20

smoothSolver:  Solving for Uy, Initial residual = 0.031032, Final residual = 0.00188284, No Iterations 2
smoothSolver:  Solving for Uz, Initial residual = 0.0128026, Final residual = 0.000932611, No Iterations 2
smoothSolver:  Solving for h, Initial residual = 0.0117539, Final residual = 0.000907145, No Iterations 2
GAMG:  Solving for p, Initial residual = 0.261271, Final residual = 0.0163174, No Iterations 3
time step continuity errors : sum local = 2.29691, global = -0.049721, cumulative = -1.36293
ExecutionTime = 0.07 s  ClockTime = 0 s

Time = 21

smoothSolver:  Solving for Uy, Initial residual = 0.0321559, Final residual = 0.00206954, No Iterations 2
smoothSolver:  Solving for Uz, Initial residual = 0.0142694, Final residual = 0.00106554, No Iterations 2
smoothSolver:  Solving for h, Initial residual = 0.0111075, Final residual = 0.000860426, No Iterations 2
GAMG:  Solving for p, Initial residual = 0.193563, Final residual = 0.0133594, No Iterations 3
time step continuity errors : sum local = 1.96538, global = 0.336447, cumulative = -1.02648
ExecutionTime = 0.07 s  ClockTime = 0 s

Time = 22

smoothSolver:  Solving for Uy, Initial residual = 0.0301595, Final residual = 0.00195852, No Iterations 2
smoothSolver:  Solving for Uz, Initial residual = 0.00685644, Final residual = 0.000478846, No Iterations 2
smoothSolver:  Solving for h, Initial residual = 0.0105279, Final residual = 0.000818268, No Iterations 2
GAMG:  Solving for p, Initial residual = 0.238013, Final residual = 0.0145389, No Iterations 3
time step continuity errors : sum local = 1.44085, global = 0.206225, cumulative = -0.820257
ExecutionTime = 0.08 s  ClockTime = 0 s

Time = 23

smoothSolver:  Solving for Uy, Initial residual = 0.020413, Final residual = 0.00122468, No Iterations 2
smoothSolver:  Solving for Uz, Initial residual = 0.00707074, Final residual = 0.000499816, No Iterations 2
smoothSolver:  Solving for h, Initial residual = 0.0099947, Final residual = 0.000779195, No Iterations 2
GAMG:  Solving for p, Initial residual = 0.453535, Final residual = 0.0245611, No Iterations 3
time step continuity errors : sum local = 1.23021, global = 0.0564099, cumulative = -0.763848
ExecutionTime = 0.08 s  ClockTime = 0 s

Time = 24

smoothSolver:  Solving for Uy, Initial residual = 0.0179045, Final residual = 0.00108662, No Iterations 2
smoothSolver:  Solving for Uz, Initial residual = 0.00880633, Final residual = 0.000657087, No Iterations 2
smoothSolver:  Solving for h, Initial residual = 0.00950714, Final residual = 0.000743291, No Iterations 2
GAMG:  Solving for p, Initial residual = 0.291647, Final residual = 0.0148581, No Iterations 3
time step continuity errors : sum local = 0.926615, global = -0.18059, cumulative = -0.944438
ExecutionTime = 0.08 s  ClockTime = 0 s

Time = 25

smoothSolver:  Solving for Uy, Initial residual = 0.0170671, Final residual = 0.00108907, No Iterations 2
smoothSolver:  Solving for Uz, Initial residual = 0.00499859, Final residual = 0.000350841, No Iterations 2
smoothSolver:  Solving for h, Initial residual = 0.00906236, Final residual = 0.000710261, No Iterations 2
GAMG:  Solving for p, Initial residual = 0.411949, Final residual = 0.02171, No Iterations 3
time step continuity errors : sum local = 0.753996, global = -0.141632, cumulative = -1.08607
ExecutionTime = 0.09 s  ClockTime = 0 s

Time = 26

smoothSolver:  Solving for Uy, Initial residual = 0.0126655, Final residual = 0.00077584, No Iterations 2
smoothSolver:  Solving for Uz, Initial residual = 0.00484894, Final residual = 0.000330012, No Iterations 2
smoothSolver:  Solving for h, Initial residual = 0.00865757, Final residual = 0.000680057, No Iterations 2
GAMG:  Solving for p, Initial residual = 0.158036, Final residual = 0.0150538, No Iterations 2
time step continuity errors : sum local = 1.1094, global = -0.133613, cumulative = -1.21968
ExecutionTime = 0.09 s  ClockTime = 0 s

Time = 27

smoothSolver:  Solving for Uy, Initial residual = 0.0105122, Final residual = 0.000655995, No Iterations 2
smoothSolver:  Solving for Uz, Initial residual = 0.00620637, Final residual = 0.000447953, No Iterations 2
smoothSolver:  Solving for h, Initial residual = 0.0082833, Final residual = 0.000651993, No Iterations 2
GAMG:  Solving for p, Initial residual = 0.129818, Final residual = 0.00893046, No Iterations 3
time step continuity errors : sum local = 0.754571, global = 0.0514151, cumulative = -1.16827
ExecutionTime = 0.09 s  ClockTime = 0 s

Time = 28

smoothSolver:  Solving for Uy, Initial residual = 0.00960593, Final residual = 0.000616873, No Iterations 2
smoothSolver:  Solving for Uz, Initial residual = 0.00380081, Final residual = 0.000259745, No Iterations 2
smoothSolver:  Solving for h, Initial residual = 0.00794106, Final residual = 0.000626158, No Iterations 2
GAMG:  Solving for p, Initial residual = 0.125829, Final residual = 0.00670512, No Iterations 4
time step continuity errors : sum local = 0.479056, global = 0.0184634, cumulative = -1.1498
ExecutionTime = 0.1 s  ClockTime = 0 s

Time = 29

smoothSolver:  Solving for Uy, Initial residual = 0.00851962, Final residual = 0.000536349, No Iterations 2
smoothSolver:  Solving for Uz, Initial residual = 0.00265507, Final residual = 0.00016586, No Iterations 2
smoothSolver:  Solving for h, Initial residual = 0.00762251, Final residual = 0.000601905, No Iterations 2
GAMG:  Solving for p, Initial residual = 0.168821, Final residual = 0.0161247, No Iterations 2
time step continuity errors : sum local = 0.715365, global = 0.101238, cumulative = -1.04857
ExecutionTime = 0.1 s  ClockTime = 0 s

Time = 30

smoothSolver:  Solving for Uy, Initial residual = 0.00723288, Final residual = 0.000451196, No Iterations 2
smoothSolver:  Solving for Uz, Initial residual = 0.00346031, Final residual = 0.000235555, No Iterations 2
smoothSolver:  Solving for h, Initial residual = 0.00732558, Final residual = 0.000579291, No Iterations 2
GAMG:  Solving for p, Initial residual = 0.178265, Final residual = 0.0107607, No Iterations 3
time step continuity errors : sum local = 0.388764, global = -0.0266147, cumulative = -1.07518
ExecutionTime = 0.1 s  ClockTime = 0 s

Time = 31

smoothSolver:  Solving for Uy, Initial residual = 0.005906, Final residual = 0.000361193, No Iterations 2
smoothSolver:  Solving for Uz, Initial residual = 0.00266271, Final residual = 0.000174625, No Iterations 2
smoothSolver:  Solving for h, Initial residual = 0.00704807, Final residual = 0.000558058, No Iterations 2
GAMG:  Solving for p, Initial residual = 0.143645, Final residual = 0.0089683, No Iterations 3
time step continuity errors : sum local = 0.359785, global = -0.0431972, cumulative = -1.11838
ExecutionTime = 0.11 s  ClockTime = 0 s

Time = 32

smoothSolver:  Solving for Uy, Initial residual = 0.00398543, Final residual = 0.000237342, No Iterations 2
smoothSolver:  Solving for Uz, Initial residual = 0.00159356, Final residual = 8.59369e-05, No Iterations 2
smoothSolver:  Solving for h, Initial residual = 0.00678945, Final residual = 0.000538169, No Iterations 2
GAMG:  Solving for p, Initial residual = 0.0878274, Final residual = 0.00739859, No Iterations 3
time step continuity errors : sum local = 0.385546, global = -0.00781376, cumulative = -1.12619
ExecutionTime = 0.11 s  ClockTime = 0 s

Time = 33

smoothSolver:  Solving for Uy, Initial residual = 0.00397066, Final residual = 0.000253244, No Iterations 2
smoothSolver:  Solving for Uz, Initial residual = 0.00255812, Final residual = 0.000168059, No Iterations 2
smoothSolver:  Solving for h, Initial residual = 0.00654713, Final residual = 0.000519515, No Iterations 2
GAMG:  Solving for p, Initial residual = 0.0670534, Final residual = 0.00333547, No Iterations 3
time step continuity errors : sum local = 0.197288, global = 0.0165394, cumulative = -1.10965
ExecutionTime = 0.11 s  ClockTime = 0 s

Time = 34

smoothSolver:  Solving for Uy, Initial residual = 0.0046602, Final residual = 0.000319209, No Iterations 2
smoothSolver:  Solving for Uz, Initial residual = 0.00207034, Final residual = 0.000130558, No Iterations 2
smoothSolver:  Solving for h, Initial residual = 0.00631832, Final residual = 0.00050189, No Iterations 2
GAMG:  Solving for p, Initial residual = 0.0618037, Final residual = 0.00195687, No Iterations 4
time step continuity errors : sum local = 0.109538, global = 0.0165777, cumulative = -1.09308
ExecutionTime = 0.12 s  ClockTime = 0 s

Time = 35

smoothSolver:  Solving for Uy, Initial residual = 0.00418145, Final residual = 0.00030749, No Iterations 2
smoothSolver:  Solving for Uz, Initial residual = 0.00135206, Final residual = 7.1006e-05, No Iterations 2
smoothSolver:  Solving for h, Initial residual = 0.0061023, Final residual = 0.000485261, No Iterations 2
GAMG:  Solving for p, Initial residual = 0.058722, Final residual = 0.00568536, No Iterations 3
time step continuity errors : sum local = 0.268722, global = 0.00548026, cumulative = -1.0876
ExecutionTime = 0.12 s  ClockTime = 0 s

Time = 36

smoothSolver:  Solving for Uy, Initial residual = 0.00298592, Final residual = 0.000209001, No Iterations 2
smoothSolver:  Solving for Uz, Initial residual = 0.0018494, Final residual = 0.000114567, No Iterations 2
smoothSolver:  Solving for h, Initial residual = 0.00589857, Final residual = 0.000469533, No Iterations 2
GAMG:  Solving for p, Initial residual = 0.055462, Final residual = 0.00264701, No Iterations 3
time step continuity errors : sum local = 0.111939, global = -0.0107879, cumulative = -1.09838
ExecutionTime = 0.12 s  ClockTime = 0 s

Time = 37

smoothSolver:  Solving for Uy, Initial residual = 0.00233591, Final residual = 0.000148519, No Iterations 2
smoothSolver:  Solving for Uz, Initial residual = 0.00157531, Final residual = 9.36106e-05, No Iterations 2
smoothSolver:  Solving for h, Initial residual = 0.0057061, Final residual = 0.000454638, No Iterations 2
GAMG:  Solving for p, Initial residual = 0.0478884, Final residual = 0.00169208, No Iterations 4
time step continuity errors : sum local = 0.0745492, global = -0.0115369, cumulative = -1.10992
ExecutionTime = 0.13 s  ClockTime = 0 s

Time = 38

smoothSolver:  Solving for Uy, Initial residual = 0.00194264, Final residual = 0.000126724, No Iterations 2
smoothSolver:  Solving for Uz, Initial residual = 0.0011671, Final residual = 5.96553e-05, No Iterations 2
smoothSolver:  Solving for h, Initial residual = 0.00552411, Final residual = 0.000440513, No Iterations 2
GAMG:  Solving for p, Initial residual = 0.0326198, Final residual = 0.00310344, No Iterations 3
time step continuity errors : sum local = 0.152875, global = -0.00311175, cumulative = -1.11303
ExecutionTime = 0.13 s  ClockTime = 0 s

Time = 39

smoothSolver:  Solving for Uy, Initial residual = 0.00161602, Final residual = 0.000101988, No Iterations 2
smoothSolver:  Solving for Uz, Initial residual = 0.00148436, Final residual = 8.61736e-05, No Iterations 2
smoothSolver:  Solving for h, Initial residual = 0.00535178, Final residual = 0.000427109, No Iterations 2
GAMG:  Solving for p, Initial residual = 0.0251349, Final residual = 0.00114126, No Iterations 3
time step continuity errors : sum local = 0.0596162, global = 0.0060593, cumulative = -1.10697
ExecutionTime = 0.13 s  ClockTime = 0 s

Time = 40

smoothSolver:  Solving for Uy, Initial residual = 0.00190728, Final residual = 0.00013408, No Iterations 2
smoothSolver:  Solving for Uz, Initial residual = 0.0012626, Final residual = 6.97962e-05, No Iterations 2
smoothSolver:  Solving for h, Initial residual = 0.00518764, Final residual = 0.000414359, No Iterations 2
GAMG:  Solving for p, Initial residual = 0.0250682, Final residual = 0.0016784, No Iterations 4
time step continuity errors : sum local = 0.0855189, global = 0.00450017, cumulative = -1.10247
ExecutionTime = 0.14 s  ClockTime = 0 s

Time = 41

smoothSolver:  Solving for Uy, Initial residual = 0.00207935, Final residual = 0.00015572, No Iterations 2
smoothSolver:  Solving for Uz, Initial residual = 0.00102175, Final residual = 5.07549e-05, No Iterations 2
smoothSolver:  Solving for h, Initial residual = 0.00503109, Final residual = 0.000402196, No Iterations 2
GAMG:  Solving for p, Initial residual = 0.0205572, Final residual = 0.00182781, No Iterations 3
time step continuity errors : sum local = 0.0866368, global = 0.00237557, cumulative = -1.1001
ExecutionTime = 0.14 s  ClockTime = 0 s

Time = 42

smoothSolver:  Solving for Uy, Initial residual = 0.0019168, Final residual = 0.000144085, No Iterations 2
smoothSolver:  Solving for Uz, Initial residual = 0.00121449, Final residual = 6.73018e-05, No Iterations 2
smoothSolver:  Solving for h, Initial residual = 0.00488221, Final residual = 0.000390603, No Iterations 2
GAMG:  Solving for p, Initial residual = 0.0149183, Final residual = 0.000892744, No Iterations 3
time step continuity errors : sum local = 0.0406357, global = -0.00400111, cumulative = -1.1041
ExecutionTime = 0.14 s  ClockTime = 0 s

Time = 43

smoothSolver:  Solving for Uy, Initial residual = 0.00149669, Final residual = 0.000109826, No Iterations 2
smoothSolver:  Solving for Uz, Initial residual = 0.00107891, Final residual = 5.7128e-05, No Iterations 2
smoothSolver:  Solving for h, Initial residual = 0.00474062, Final residual = 0.000379544, No Iterations 2
GAMG:  Solving for p, Initial residual = 0.0157505, Final residual = 0.00150754, No Iterations 3
time step continuity errors : sum local = 0.0697984, global = -0.00317497, cumulative = -1.10727
ExecutionTime = 0.15 s  ClockTime = 0 s

Time = 44

smoothSolver:  Solving for Uy, Initial residual = 0.00104652, Final residual = 7.35652e-05, No Iterations 2
smoothSolver:  Solving for Uz, Initial residual = 0.000935456, Final residual = 4.57328e-05, No Iterations 2
smoothSolver:  Solving for h, Initial residual = 0.00460623, Final residual = 0.000368989, No Iterations 2
GAMG:  Solving for p, Initial residual = 0.0121318, Final residual = 0.00106104, No Iterations 3
time step continuity errors : sum local = 0.0513363, global = -0.00138748, cumulative = -1.10866
ExecutionTime = 0.15 s  ClockTime = 0 s

Time = 45

smoothSolver:  Solving for Uy, Initial residual = 0.000966257, Final residual = 6.64212e-05, No Iterations 2
smoothSolver:  Solving for Uz, Initial residual = 0.00102944, Final residual = 5.39629e-05, No Iterations 2
smoothSolver:  Solving for h, Initial residual = 0.00447794, Final residual = 0.000358899, No Iterations 2
GAMG:  Solving for p, Initial residual = 0.00829077, Final residual = 0.000722643, No Iterations 3
time step continuity errors : sum local = 0.0357758, global = 0.00277017, cumulative = -1.10589
ExecutionTime = 0.15 s  ClockTime = 0 s

Time = 46

smoothSolver:  Solving for Uy, Initial residual = 0.00106245, Final residual = 7.54534e-05, No Iterations 2
smoothSolver:  Solving for Uz, Initial residual = 0.00095135, Final residual = 4.84619e-05, No Iterations 2
smoothSolver:  Solving for h, Initial residual = 0.00435521, Final residual = 0.000349238, No Iterations 2
GAMG:  Solving for p, Initial residual = 0.00861488, Final residual = 0.000840173, No Iterations 3
time step continuity errors : sum local = 0.0411831, global = 0.00162221, cumulative = -1.10427
ExecutionTime = 0.16 s  ClockTime = 1 s

Time = 47

smoothSolver:  Solving for Uy, Initial residual = 0.0010914, Final residual = 7.93892e-05, No Iterations 2
smoothSolver:  Solving for Uz, Initial residual = 0.000876017, Final residual = 4.29468e-05, No Iterations 2
smoothSolver:  Solving for h, Initial residual = 0.00423754, Final residual = 0.000339968, No Iterations 2
GAMG:  Solving for p, Initial residual = 0.00740311, Final residual = 0.000607957, No Iterations 3
time step continuity errors : sum local = 0.028989, global = 0.00143775, cumulative = -1.10283
ExecutionTime = 0.16 s  ClockTime = 1 s

Time = 48

smoothSolver:  Solving for Uy, Initial residual = 0.00116511, Final residual = 8.69529e-05, No Iterations 2
smoothSolver:  Solving for Uz, Initial residual = 0.000903168, Final residual = 4.59146e-05, No Iterations 2
smoothSolver:  Solving for h, Initial residual = 0.00412441, Final residual = 0.000331075, No Iterations 2
GAMG:  Solving for p, Initial residual = 0.0057318, Final residual = 0.000365038, No Iterations 3
time step continuity errors : sum local = 0.0171319, global = -0.00228305, cumulative = -1.10511
ExecutionTime = 0.16 s  ClockTime = 1 s

Time = 49

smoothSolver:  Solving for Uy, Initial residual = 0.00112304, Final residual = 8.37973e-05, No Iterations 2
smoothSolver:  Solving for Uz, Initial residual = 0.000851362, Final residual = 4.22552e-05, No Iterations 2
smoothSolver:  Solving for h, Initial residual = 0.00401605, Final residual = 0.000322538, No Iterations 2
GAMG:  Solving for p, Initial residual = 0.00502421, Final residual = 0.000327854, No Iterations 4
time step continuity errors : sum local = 0.0154736, global = -0.000735356, cumulative = -1.10585
ExecutionTime = 0.17 s  ClockTime = 1 s

Time = 50

smoothSolver:  Solving for Uy, Initial residual = 0.000996019, Final residual = 7.3205e-05, No Iterations 2
smoothSolver:  Solving for Uz, Initial residual = 0.000810314, Final residual = 3.92648e-05, No Iterations 2
smoothSolver:  Solving for h, Initial residual = 0.00391222, Final residual = 0.000314345, No Iterations 2
GAMG:  Solving for p, Initial residual = 0.00420513, Final residual = 0.000379038, No Iterations 3
time step continuity errors : sum local = 0.0182154, global = -0.000795202, cumulative = -1.10664
ExecutionTime = 0.17 s  ClockTime = 1 s

Time = 51

smoothSolver:  Solving for Uy, Initial residual = 0.000930838, Final residual = 6.81243e-05, No Iterations 2
smoothSolver:  Solving for Uz, Initial residual = 0.000814165, Final residual = 4.00223e-05, No Iterations 2
smoothSolver:  Solving for h, Initial residual = 0.00381252, Final residual = 0.000306468, No Iterations 2
GAMG:  Solving for p, Initial residual = 0.00319378, Final residual = 0.000221227, No Iterations 3
time step continuity errors : sum local = 0.01072, global = 0.00146384, cumulative = -1.10518
ExecutionTime = 0.17 s  ClockTime = 1 s

Time = 52

smoothSolver:  Solving for Uy, Initial residual = 0.000889792, Final residual = 6.5371e-05, No Iterations 2
smoothSolver:  Solving for Uz, Initial residual = 0.000786485, Final residual = 3.83886e-05, No Iterations 2
smoothSolver:  Solving for h, Initial residual = 0.00371675, Final residual = 0.000298894, No Iterations 2
GAMG:  Solving for p, Initial residual = 0.00307492, Final residual = 0.000218696, No Iterations 4
time step continuity errors : sum local = 0.0105535, global = 0.000486105, cumulative = -1.10469
ExecutionTime = 0.18 s  ClockTime = 1 s

Time = 53

smoothSolver:  Solving for Uy, Initial residual = 0.000841232, Final residual = 6.19569e-05, No Iterations 2
smoothSolver:  Solving for Uz, Initial residual = 0.000767328, Final residual = 3.73763e-05, No Iterations 2
smoothSolver:  Solving for h, Initial residual = 0.00362451, Final residual = 0.000291593, No Iterations 2
GAMG:  Solving for p, Initial residual = 0.00258458, Final residual = 0.000143065, No Iterations 3
time step continuity errors : sum local = 0.00682283, global = 0.00098139, cumulative = -1.10371
ExecutionTime = 0.18 s  ClockTime = 1 s

Time = 54

smoothSolver:  Solving for Uy, Initial residual = 0.000815353, Final residual = 6.02166e-05, No Iterations 2
smoothSolver:  Solving for Uz, Initial residual = 0.000760892, Final residual = 3.73133e-05, No Iterations 2
smoothSolver:  Solving for h, Initial residual = 0.00353578, Final residual = 0.000284563, No Iterations 2
GAMG:  Solving for p, Initial residual = 0.00200073, Final residual = 0.000128118, No Iterations 3
time step continuity errors : sum local = 0.00607927, global = -0.000739366, cumulative = -1.10445
ExecutionTime = 0.18 s  ClockTime = 1 s

Time = 55

smoothSolver:  Solving for Uy, Initial residual = 0.000804608, Final residual = 5.94173e-05, No Iterations 2
smoothSolver:  Solving for Uz, Initial residual = 0.000737954, Final residual = 3.59551e-05, No Iterations 2
smoothSolver:  Solving for h, Initial residual = 0.00345031, Final residual = 0.000277785, No Iterations 2
GAMG:  Solving for p, Initial residual = 0.00198764, Final residual = 0.000185584, No Iterations 3
time step continuity errors : sum local = 0.00882816, global = -0.000244381, cumulative = -1.1047
ExecutionTime = 0.19 s  ClockTime = 1 s

Time = 56

smoothSolver:  Solving for Uy, Initial residual = 0.000790731, Final residual = 5.85064e-05, No Iterations 2
smoothSolver:  Solving for Uz, Initial residual = 0.000716841, Final residual = 3.46445e-05, No Iterations 2
smoothSolver:  Solving for h, Initial residual = 0.00336807, Final residual = 0.00027125, No Iterations 2
GAMG:  Solving for p, Initial residual = 0.00167338, Final residual = 0.000109839, No Iterations 3
time step continuity errors : sum local = 0.00525969, global = -0.000149011, cumulative = -1.10485
ExecutionTime = 0.19 s  ClockTime = 1 s

Time = 57

smoothSolver:  Solving for Uy, Initial residual = 0.000791245, Final residual = 5.8901e-05, No Iterations 2
smoothSolver:  Solving for Uz, Initial residual = 0.000704444, Final residual = 3.40662e-05, No Iterations 2
smoothSolver:  Solving for h, Initial residual = 0.00328882, Final residual = 0.000264944, No Iterations 2
GAMG:  Solving for p, Initial residual = 0.00141893, Final residual = 0.000130509, No Iterations 3
time step continuity errors : sum local = 0.00626955, global = 0.000597955, cumulative = -1.10425
ExecutionTime = 0.19 s  ClockTime = 1 s

Time = 58

smoothSolver:  Solving for Uy, Initial residual = 0.000781993, Final residual = 5.84539e-05, No Iterations 2
smoothSolver:  Solving for Uz, Initial residual = 0.00068833, Final residual = 3.3233e-05, No Iterations 2
smoothSolver:  Solving for h, Initial residual = 0.0032123, Final residual = 0.000258852, No Iterations 2
GAMG:  Solving for p, Initial residual = 0.00129225, Final residual = 7.27881e-05, No Iterations 4
time step continuity errors : sum local = 0.00349098, global = 0.000176666, cumulative = -1.10407
ExecutionTime = 0.2 s  ClockTime = 1 s

Time = 59

smoothSolver:  Solving for Uy, Initial residual = 0.000752517, Final residual = 5.62873e-05, No Iterations 2
smoothSolver:  Solving for Uz, Initial residual = 0.000674915, Final residual = 3.26091e-05, No Iterations 2
smoothSolver:  Solving for h, Initial residual = 0.00313833, Final residual = 0.000252959, No Iterations 2
GAMG:  Solving for p, Initial residual = 0.00108991, Final residual = 7.29092e-05, No Iterations 3
time step continuity errors : sum local = 0.00348039, global = 0.000298797, cumulative = -1.10377
ExecutionTime = 0.2 s  ClockTime = 1 s

Time = 60

smoothSolver:  Solving for Uy, Initial residual = 0.000710982, Final residual = 5.30049e-05, No Iterations 2
smoothSolver:  Solving for Uz, Initial residual = 0.000664354, Final residual = 3.21772e-05, No Iterations 2
smoothSolver:  Solving for h, Initial residual = 0.00306684, Final residual = 0.000247261, No Iterations 2
GAMG:  Solving for p, Initial residual = 0.000965823, Final residual = 6.51398e-05, No Iterations 3
time step continuity errors : sum local = 0.00310314, global = -0.000255139, cumulative = -1.10403
ExecutionTime = 0.2 s  ClockTime = 1 s

Time = 61

smoothSolver:  Solving for Uy, Initial residual = 0.000679611, Final residual = 5.0501e-05, No Iterations 2
smoothSolver:  Solving for Uz, Initial residual = 0.000650436, Final residual = 3.1437e-05, No Iterations 2
smoothSolver:  Solving for h, Initial residual = 0.00299766, Final residual = 0.00024175, No Iterations 2
GAMG:  Solving for p, Initial residual = 0.000890774, Final residual = 2.94884e-05, No Iterations 4
time step continuity errors : sum local = 0.00140621, global = -0.000151027, cumulative = -1.10418
ExecutionTime = 0.21 s  ClockTime = 1 s

Time = 62

smoothSolver:  Solving for Uy, Initial residual = 0.000662974, Final residual = 4.91988e-05, No Iterations 2
smoothSolver:  Solving for Uz, Initial residual = 0.000636326, Final residual = 3.06714e-05, No Iterations 2
smoothSolver:  Solving for h, Initial residual = 0.00293079, Final residual = 0.000236415, No Iterations 2
GAMG:  Solving for p, Initial residual = 0.000793544, Final residual = 2.82066e-05, No Iterations 4
time step continuity errors : sum local = 0.00134844, global = -9.15552e-05, cumulative = -1.10427
ExecutionTime = 0.21 s  ClockTime = 1 s

Time = 63

smoothSolver:  Solving for Uy, Initial residual = 0.000662353, Final residual = 4.9214e-05, No Iterations 2
smoothSolver:  Solving for Uz, Initial residual = 0.000623437, Final residual = 3.00184e-05, No Iterations 2
smoothSolver:  Solving for h, Initial residual = 0.00286608, Final residual = 0.000231249, No Iterations 2
GAMG:  Solving for p, Initial residual = 0.000801243, Final residual = 7.99328e-05, No Iterations 3
time step continuity errors : sum local = 0.00382546, global = 0.000262521, cumulative = -1.10401
ExecutionTime = 0.21 s  ClockTime = 1 s

Time = 64

smoothSolver:  Solving for Uy, Initial residual = 0.000662597, Final residual = 4.93269e-05, No Iterations 2
smoothSolver:  Solving for Uz, Initial residual = 0.0006101, Final residual = 2.9339e-05, No Iterations 2
smoothSolver:  Solving for h, Initial residual = 0.00280343, Final residual = 0.000226246, No Iterations 2
GAMG:  Solving for p, Initial residual = 0.000774579, Final residual = 3.20283e-05, No Iterations 4
time step continuity errors : sum local = 0.00153169, global = 0.000130321, cumulative = -1.10388
ExecutionTime = 0.22 s  ClockTime = 1 s

Time = 65

smoothSolver:  Solving for Uy, Initial residual = 0.000653723, Final residual = 4.87897e-05, No Iterations 2
smoothSolver:  Solving for Uz, Initial residual = 0.000597971, Final residual = 2.8758e-05, No Iterations 2
smoothSolver:  Solving for h, Initial residual = 0.00274273, Final residual = 0.000221394, No Iterations 2
GAMG:  Solving for p, Initial residual = 0.000660299, Final residual = 1.58781e-05, No Iterations 4
time step continuity errors : sum local = 0.000758028, global = 4.94152e-05, cumulative = -1.10383
ExecutionTime = 0.22 s  ClockTime = 1 s

Time = 66

smoothSolver:  Solving for Uy, Initial residual = 0.000634751, Final residual = 4.74166e-05, No Iterations 2
smoothSolver:  Solving for Uz, Initial residual = 0.000586676, Final residual = 2.82244e-05, No Iterations 2
smoothSolver:  Solving for h, Initial residual = 0.00268387, Final residual = 0.00021669, No Iterations 2
GAMG:  Solving for p, Initial residual = 0.000586728, Final residual = 4.08293e-05, No Iterations 3
time step continuity errors : sum local = 0.00194743, global = -0.000110485, cumulative = -1.10394
ExecutionTime = 0.22 s  ClockTime = 1 s

Time = 67

smoothSolver:  Solving for Uy, Initial residual = 0.00061063, Final residual = 4.55754e-05, No Iterations 2
smoothSolver:  Solving for Uz, Initial residual = 0.00057502, Final residual = 2.76345e-05, No Iterations 2
smoothSolver:  Solving for h, Initial residual = 0.00262679, Final residual = 0.000212128, No Iterations 2
GAMG:  Solving for p, Initial residual = 0.000539138, Final residual = 1.79144e-05, No Iterations 4
time step continuity errors : sum local = 0.000854805, global = -7.86981e-05, cumulative = -1.10402
ExecutionTime = 0.23 s  ClockTime = 1 s

Time = 68

smoothSolver:  Solving for Uy, Initial residual = 0.000590448, Final residual = 4.40286e-05, No Iterations 2
smoothSolver:  Solving for Uz, Initial residual = 0.000563547, Final residual = 2.70497e-05, No Iterations 2
smoothSolver:  Solving for h, Initial residual = 0.00257144, Final residual = 0.000207701, No Iterations 2
GAMG:  Solving for p, Initial residual = 0.000486948, Final residual = 2.31044e-05, No Iterations 4
time step continuity errors : sum local = 0.0011035, global = -7.88583e-05, cumulative = -1.1041
ExecutionTime = 0.23 s  ClockTime = 1 s

Time = 69

smoothSolver:  Solving for Uy, Initial residual = 0.000578102, Final residual = 4.31051e-05, No Iterations 2
smoothSolver:  Solving for Uz, Initial residual = 0.00055256, Final residual = 2.65072e-05, No Iterations 2
smoothSolver:  Solving for h, Initial residual = 0.00251776, Final residual = 0.000203404, No Iterations 2
GAMG:  Solving for p, Initial residual = 0.000486592, Final residual = 4.75441e-05, No Iterations 4
time step continuity errors : sum local = 0.00227162, global = 6.65969e-05, cumulative = -1.10403
ExecutionTime = 0.23 s  ClockTime = 1 s

Time = 70

smoothSolver:  Solving for Uy, Initial residual = 0.000568993, Final residual = 4.24327e-05, No Iterations 2
smoothSolver:  Solving for Uz, Initial residual = 0.00054157, Final residual = 2.59665e-05, No Iterations 2
smoothSolver:  Solving for h, Initial residual = 0.00246569, Final residual = 0.000199233, No Iterations 2
GAMG:  Solving for p, Initial residual = 0.000480212, Final residual = 1.47406e-05, No Iterations 5
time step continuity errors : sum local = 0.000704046, global = 4.90972e-05, cumulative = -1.10398
ExecutionTime = 0.24 s  ClockTime = 1 s

Time = 71

smoothSolver:  Solving for Uy, Initial residual = 0.000561316, Final residual = 4.19028e-05, No Iterations 2
smoothSolver:  Solving for Uz, Initial residual = 0.000530832, Final residual = 2.54427e-05, No Iterations 2
smoothSolver:  Solving for h, Initial residual = 0.00241512, Final residual = 0.00019518, No Iterations 2
GAMG:  Solving for p, Initial residual = 0.000446325, Final residual = 4.15646e-05, No Iterations 4
time step continuity errors : sum local = 0.00198383, global = 4.96831e-05, cumulative = -1.10393
ExecutionTime = 0.24 s  ClockTime = 1 s

Time = 72

smoothSolver:  Solving for Uy, Initial residual = 0.000551437, Final residual = 4.11961e-05, No Iterations 2
smoothSolver:  Solving for Uz, Initial residual = 0.000520333, Final residual = 2.49281e-05, No Iterations 2
smoothSolver:  Solving for h, Initial residual = 0.00236597, Final residual = 0.000191239, No Iterations 2
GAMG:  Solving for p, Initial residual = 0.000420823, Final residual = 1.81645e-05, No Iterations 4
time step continuity errors : sum local = 0.00086666, global = -2.2126e-05, cumulative = -1.10395
ExecutionTime = 0.24 s  ClockTime = 1 s

Time = 73

smoothSolver:  Solving for Uy, Initial residual = 0.000539796, Final residual = 4.03369e-05, No Iterations 2
smoothSolver:  Solving for Uz, Initial residual = 0.00050989, Final residual = 2.44073e-05, No Iterations 2
smoothSolver:  Solving for h, Initial residual = 0.00231819, Final residual = 0.000187406, No Iterations 2
GAMG:  Solving for p, Initial residual = 0.000401635, Final residual = 1.78671e-05, No Iterations 4
time step continuity errors : sum local = 0.000852561, global = -8.79417e-05, cumulative = -1.10404
ExecutionTime = 0.25 s  ClockTime = 1 s

Time = 74

smoothSolver:  Solving for Uy, Initial residual = 0.000526644, Final residual = 3.93543e-05, No Iterations 2
smoothSolver:  Solving for Uz, Initial residual = 0.000499716, Final residual = 2.39005e-05, No Iterations 2
smoothSolver:  Solving for h, Initial residual = 0.00227175, Final residual = 0.00018368, No Iterations 2
GAMG:  Solving for p, Initial residual = 0.000380173, Final residual = 1.55952e-05, No Iterations 4
time step continuity errors : sum local = 0.000744331, global = -3.04985e-05, cumulative = -1.10407
ExecutionTime = 0.25 s  ClockTime = 1 s

Time = 75

smoothSolver:  Solving for Uy, Initial residual = 0.000513502, Final residual = 3.8376e-05, No Iterations 2
smoothSolver:  Solving for Uz, Initial residual = 0.000489995, Final residual = 2.34236e-05, No Iterations 2
smoothSolver:  Solving for h, Initial residual = 0.0022266, Final residual = 0.000180054, No Iterations 2
GAMG:  Solving for p, Initial residual = 0.000363644, Final residual = 2.5097e-05, No Iterations 4
time step continuity errors : sum local = 0.00119803, global = 4.75547e-05, cumulative = -1.10402
ExecutionTime = 0.25 s  ClockTime = 1 s

Time = 76

smoothSolver:  Solving for Uy, Initial residual = 0.00050155, Final residual = 3.74882e-05, No Iterations 2
smoothSolver:  Solving for Uz, Initial residual = 0.000480452, Final residual = 2.29579e-05, No Iterations 2
smoothSolver:  Solving for h, Initial residual = 0.00218268, Final residual = 0.000176527, No Iterations 2
GAMG:  Solving for p, Initial residual = 0.000355551, Final residual = 1.10372e-05, No Iterations 5
time step continuity errors : sum local = 0.00052681, global = 4.22407e-05, cumulative = -1.10398
ExecutionTime = 0.26 s  ClockTime = 1 s

Time = 77

smoothSolver:  Solving for Uy, Initial residual = 0.000491756, Final residual = 3.67674e-05, No Iterations 2
smoothSolver:  Solving for Uz, Initial residual = 0.000471031, Final residual = 2.24989e-05, No Iterations 2
smoothSolver:  Solving for h, Initial residual = 0.00213994, Final residual = 0.000173092, No Iterations 2
GAMG:  Solving for p, Initial residual = 0.000340382, Final residual = 2.60887e-05, No Iterations 4
time step continuity errors : sum local = 0.00124486, global = 4.82173e-05, cumulative = -1.10393
ExecutionTime = 0.26 s  ClockTime = 1 s

Time = 78

smoothSolver:  Solving for Uy, Initial residual = 0.000482176, Final residual = 3.60584e-05, No Iterations 2
smoothSolver:  Solving for Uz, Initial residual = 0.000461789, Final residual = 2.20476e-05, No Iterations 2
smoothSolver:  Solving for h, Initial residual = 0.00209831, Final residual = 0.000169747, No Iterations 2
GAMG:  Solving for p, Initial residual = 0.000331643, Final residual = 2.16004e-05, No Iterations 4
time step continuity errors : sum local = 0.00103046, global = 3.18942e-05, cumulative = -1.1039
ExecutionTime = 0.26 s  ClockTime = 1 s

Time = 79

smoothSolver:  Solving for Uy, Initial residual = 0.00047309, Final residual = 3.53876e-05, No Iterations 2
smoothSolver:  Solving for Uz, Initial residual = 0.000452651, Final residual = 2.15982e-05, No Iterations 2
smoothSolver:  Solving for h, Initial residual = 0.00205777, Final residual = 0.000166486, No Iterations 2
GAMG:  Solving for p, Initial residual = 0.000323989, Final residual = 1.13723e-05, No Iterations 4
time step continuity errors : sum local = 0.000542518, global = -3.78681e-05, cumulative = -1.10394
ExecutionTime = 0.27 s  ClockTime = 1 s

Time = 80

smoothSolver:  Solving for Uy, Initial residual = 0.000463714, Final residual = 3.46923e-05, No Iterations 2
smoothSolver:  Solving for Uz, Initial residual = 0.000443667, Final residual = 2.11561e-05, No Iterations 2
smoothSolver:  Solving for h, Initial residual = 0.00201827, Final residual = 0.00016331, No Iterations 2
GAMG:  Solving for p, Initial residual = 0.00031289, Final residual = 1.81449e-05, No Iterations 4
time step continuity errors : sum local = 0.000865638, global = -1.43846e-05, cumulative = -1.10395
ExecutionTime = 0.27 s  ClockTime = 1 s

Time = 81

smoothSolver:  Solving for Uy, Initial residual = 0.00045378, Final residual = 3.39554e-05, No Iterations 2
smoothSolver:  Solving for Uz, Initial residual = 0.000434922, Final residual = 2.07263e-05, No Iterations 2
smoothSolver:  Solving for h, Initial residual = 0.00197979, Final residual = 0.000160214, No Iterations 2
GAMG:  Solving for p, Initial residual = 0.000304393, Final residual = 1.15005e-05, No Iterations 4
time step continuity errors : sum local = 0.000548652, global = 1.84985e-05, cumulative = -1.10393
ExecutionTime = 0.27 s  ClockTime = 1 s

Time = 82

smoothSolver:  Solving for Uy, Initial residual = 0.000443945, Final residual = 3.32276e-05, No Iterations 2
smoothSolver:  Solving for Uz, Initial residual = 0.000426401, Final residual = 2.03098e-05, No Iterations 2
smoothSolver:  Solving for h, Initial residual = 0.00194228, Final residual = 0.000157195, No Iterations 2
GAMG:  Solving for p, Initial residual = 0.000295307, Final residual = 1.89596e-05, No Iterations 4
time step continuity errors : sum local = 0.000904537, global = 4.15208e-05, cumulative = -1.10389
ExecutionTime = 0.28 s  ClockTime = 1 s

Time = 83

smoothSolver:  Solving for Uy, Initial residual = 0.000434424, Final residual = 3.25229e-05, No Iterations 2
smoothSolver:  Solving for Uz, Initial residual = 0.000418051, Final residual = 1.99031e-05, No Iterations 2
smoothSolver:  Solving for h, Initial residual = 0.0019057, Final residual = 0.00015425, No Iterations 2
GAMG:  Solving for p, Initial residual = 0.000289738, Final residual = 2.00029e-05, No Iterations 4
time step continuity errors : sum local = 0.000954195, global = 4.38633e-05, cumulative = -1.10385
ExecutionTime = 0.28 s  ClockTime = 1 s

Time = 84

smoothSolver:  Solving for Uy, Initial residual = 0.000425539, Final residual = 3.18643e-05, No Iterations 2
smoothSolver:  Solving for Uz, Initial residual = 0.000409884, Final residual = 1.95062e-05, No Iterations 2
smoothSolver:  Solving for h, Initial residual = 0.00187003, Final residual = 0.000151378, No Iterations 2
GAMG:  Solving for p, Initial residual = 0.000284273, Final residual = 1.82762e-05, No Iterations 4
time step continuity errors : sum local = 0.000871715, global = 3.74108e-05, cumulative = -1.10381
ExecutionTime = 0.28 s  ClockTime = 1 s

Time = 85

smoothSolver:  Solving for Uy, Initial residual = 0.0004171, Final residual = 3.12379e-05, No Iterations 2
smoothSolver:  Solving for Uz, Initial residual = 0.000401872, Final residual = 1.91167e-05, No Iterations 2
smoothSolver:  Solving for h, Initial residual = 0.00183523, Final residual = 0.000148575, No Iterations 2
GAMG:  Solving for p, Initial residual = 0.000275343, Final residual = 1.1178e-05, No Iterations 4
time step continuity errors : sum local = 0.000533117, global = 1.8e-05, cumulative = -1.10379
ExecutionTime = 0.29 s  ClockTime = 1 s

Time = 86

smoothSolver:  Solving for Uy, Initial residual = 0.000408805, Final residual = 3.06197e-05, No Iterations 2
smoothSolver:  Solving for Uz, Initial residual = 0.000393988, Final residual = 1.87328e-05, No Iterations 2
smoothSolver:  Solving for h, Initial residual = 0.00180128, Final residual = 0.000145839, No Iterations 2
GAMG:  Solving for p, Initial residual = 0.000264217, Final residual = 1.4731e-05, No Iterations 4
time step continuity errors : sum local = 0.000702571, global = 1.69261e-05, cumulative = -1.10378
ExecutionTime = 0.3 s  ClockTime = 1 s

Time = 87

smoothSolver:  Solving for Uy, Initial residual = 0.000400182, Final residual = 2.99756e-05, No Iterations 2
smoothSolver:  Solving for Uz, Initial residual = 0.000386247, Final residual = 1.83551e-05, No Iterations 2
smoothSolver:  Solving for h, Initial residual = 0.00176814, Final residual = 0.000143169, No Iterations 2
GAMG:  Solving for p, Initial residual = 0.000258341, Final residual = 9.74569e-06, No Iterations 4
time step continuity errors : sum local = 0.000464781, global = 1.62168e-05, cumulative = -1.10376
ExecutionTime = 0.3 s  ClockTime = 1 s

Time = 88

smoothSolver:  Solving for Uy, Initial residual = 0.000391767, Final residual = 2.935e-05, No Iterations 2
smoothSolver:  Solving for Uz, Initial residual = 0.000378662, Final residual = 1.79849e-05, No Iterations 2
smoothSolver:  Solving for h, Initial residual = 0.00173579, Final residual = 0.000140561, No Iterations 2
GAMG:  Solving for p, Initial residual = 0.000252958, Final residual = 1.55473e-05, No Iterations 4
time step continuity errors : sum local = 0.000741461, global = 2.9136e-05, cumulative = -1.10373
ExecutionTime = 0.3 s  ClockTime = 1 s

Time = 89

smoothSolver:  Solving for Uy, Initial residual = 0.000383679, Final residual = 2.87492e-05, No Iterations 2
smoothSolver:  Solving for Uz, Initial residual = 0.000371242, Final residual = 1.76237e-05, No Iterations 2
smoothSolver:  Solving for h, Initial residual = 0.0017042, Final residual = 0.000138013, No Iterations 2
GAMG:  Solving for p, Initial residual = 0.000249974, Final residual = 1.63134e-05, No Iterations 4
time step continuity errors : sum local = 0.000777931, global = 3.40234e-05, cumulative = -1.1037
ExecutionTime = 0.31 s  ClockTime = 1 s

Time = 90

smoothSolver:  Solving for Uy, Initial residual = 0.000376076, Final residual = 2.81851e-05, No Iterations 2
smoothSolver:  Solving for Uz, Initial residual = 0.000363982, Final residual = 1.72714e-05, No Iterations 2
smoothSolver:  Solving for h, Initial residual = 0.00167336, Final residual = 0.000135526, No Iterations 2
GAMG:  Solving for p, Initial residual = 0.000246614, Final residual = 1.62412e-05, No Iterations 4
time step continuity errors : sum local = 0.000774461, global = 3.31352e-05, cumulative = -1.10366
ExecutionTime = 0.31 s  ClockTime = 1 s

Time = 91

smoothSolver:  Solving for Uy, Initial residual = 0.000368674, Final residual = 2.76356e-05, No Iterations 2
smoothSolver:  Solving for Uz, Initial residual = 0.000356875, Final residual = 1.69274e-05, No Iterations 2
smoothSolver:  Solving for h, Initial residual = 0.00164323, Final residual = 0.000133095, No Iterations 2
GAMG:  Solving for p, Initial residual = 0.000239409, Final residual = 1.51473e-05, No Iterations 4
time step continuity errors : sum local = 0.000722246, global = 2.75961e-05, cumulative = -1.10364
ExecutionTime = 0.31 s  ClockTime = 1 s

Time = 92

smoothSolver:  Solving for Uy, Initial residual = 0.0003612, Final residual = 2.70787e-05, No Iterations 2
smoothSolver:  Solving for Uz, Initial residual = 0.000349908, Final residual = 1.659e-05, No Iterations 2
smoothSolver:  Solving for h, Initial residual = 0.00161379, Final residual = 0.000130719, No Iterations 2
GAMG:  Solving for p, Initial residual = 0.00023036, Final residual = 9.62306e-06, No Iterations 4
time step continuity errors : sum local = 0.000458825, global = 1.76488e-05, cumulative = -1.10362
ExecutionTime = 0.32 s  ClockTime = 1 s

Time = 93

smoothSolver:  Solving for Uy, Initial residual = 0.000353696, Final residual = 2.65187e-05, No Iterations 2
smoothSolver:  Solving for Uz, Initial residual = 0.000343067, Final residual = 1.62583e-05, No Iterations 2
smoothSolver:  Solving for h, Initial residual = 0.00158501, Final residual = 0.000128396, No Iterations 2
GAMG:  Solving for p, Initial residual = 0.000222827, Final residual = 8.66195e-06, No Iterations 4
time step continuity errors : sum local = 0.000412977, global = 1.52847e-05, cumulative = -1.1036
ExecutionTime = 0.32 s  ClockTime = 1 s

Time = 94

smoothSolver:  Solving for Uy, Initial residual = 0.000346194, Final residual = 2.59583e-05, No Iterations 2
smoothSolver:  Solving for Uz, Initial residual = 0.000336361, Final residual = 1.59329e-05, No Iterations 2
smoothSolver:  Solving for h, Initial residual = 0.00155688, Final residual = 0.000126125, No Iterations 2
GAMG:  Solving for p, Initial residual = 0.000218415, Final residual = 8.75068e-06, No Iterations 4
time step continuity errors : sum local = 0.000417202, global = 1.65512e-05, cumulative = -1.10359
ExecutionTime = 0.32 s  ClockTime = 1 s

Time = 95

smoothSolver:  Solving for Uy, Initial residual = 0.000339046, Final residual = 2.54248e-05, No Iterations 2
smoothSolver:  Solving for Uz, Initial residual = 0.000329785, Final residual = 1.56141e-05, No Iterations 2
smoothSolver:  Solving for h, Initial residual = 0.00152938, Final residual = 0.000123903, No Iterations 2
GAMG:  Solving for p, Initial residual = 0.000214016, Final residual = 9.20826e-06, No Iterations 4
time step continuity errors : sum local = 0.00043901, global = 1.95208e-05, cumulative = -1.10357
ExecutionTime = 0.33 s  ClockTime = 1 s

Time = 96

smoothSolver:  Solving for Uy, Initial residual = 0.000332327, Final residual = 2.49243e-05, No Iterations 2
smoothSolver:  Solving for Uz, Initial residual = 0.000323341, Final residual = 1.53023e-05, No Iterations 2
smoothSolver:  Solving for h, Initial residual = 0.00150249, Final residual = 0.00012173, No Iterations 2
GAMG:  Solving for p, Initial residual = 0.000209817, Final residual = 1.33803e-05, No Iterations 4
time step continuity errors : sum local = 0.00063786, global = 2.49501e-05, cumulative = -1.10354
ExecutionTime = 0.33 s  ClockTime = 1 s

Time = 97

smoothSolver:  Solving for Uy, Initial residual = 0.000325726, Final residual = 2.44325e-05, No Iterations 2
smoothSolver:  Solving for Uz, Initial residual = 0.000317032, Final residual = 1.49975e-05, No Iterations 2
smoothSolver:  Solving for h, Initial residual = 0.00147618, Final residual = 0.000119605, No Iterations 2
GAMG:  Solving for p, Initial residual = 0.000207321, Final residual = 1.34272e-05, No Iterations 4
time step continuity errors : sum local = 0.000640094, global = 2.51937e-05, cumulative = -1.10352
ExecutionTime = 0.33 s  ClockTime = 1 s

Time = 98

smoothSolver:  Solving for Uy, Initial residual = 0.000319274, Final residual = 2.39522e-05, No Iterations 2
smoothSolver:  Solving for Uz, Initial residual = 0.000310846, Final residual = 1.46989e-05, No Iterations 2
smoothSolver:  Solving for h, Initial residual = 0.00145045, Final residual = 0.000117526, No Iterations 2
GAMG:  Solving for p, Initial residual = 0.000202916, Final residual = 1.30115e-05, No Iterations 4
time step continuity errors : sum local = 0.000620236, global = 2.38059e-05, cumulative = -1.10349
ExecutionTime = 0.34 s  ClockTime = 1 s

Time = 99

smoothSolver:  Solving for Uy, Initial residual = 0.000312834, Final residual = 2.3472e-05, No Iterations 2
smoothSolver:  Solving for Uz, Initial residual = 0.000304783, Final residual = 1.44062e-05, No Iterations 2
smoothSolver:  Solving for h, Initial residual = 0.00142528, Final residual = 0.000115491, No Iterations 2
GAMG:  Solving for p, Initial residual = 0.000196496, Final residual = 1.23421e-05, No Iterations 4
time step continuity errors : sum local = 0.000588312, global = 2.18894e-05, cumulative = -1.10347
ExecutionTime = 0.34 s  ClockTime = 1 s

Time = 100

smoothSolver:  Solving for Uy, Initial residual = 0.00030639, Final residual = 2.2991e-05, No Iterations 2
smoothSolver:  Solving for Uz, Initial residual = 0.000298843, Final residual = 1.41195e-05, No Iterations 2
smoothSolver:  Solving for h, Initial residual = 0.00140065, Final residual = 0.0001135, No Iterations 2
GAMG:  Solving for p, Initial residual = 0.000190757, Final residual = 8.4197e-06, No Iterations 4
time step continuity errors : sum local = 0.000401331, global = 1.06459e-05, cumulative = -1.10346
ExecutionTime = 0.34 s  ClockTime = 1 s

Time = 101

smoothSolver:  Solving for Uy, Initial residual = 0.000300163, Final residual = 2.25265e-05, No Iterations 2
smoothSolver:  Solving for Uz, Initial residual = 0.000293023, Final residual = 1.3839e-05, No Iterations 2
smoothSolver:  Solving for h, Initial residual = 0.00137654, Final residual = 0.000111551, No Iterations 2
GAMG:  Solving for p, Initial residual = 0.000185446, Final residual = 7.60516e-06, No Iterations 4
time step continuity errors : sum local = 0.000362496, global = 1.51471e-05, cumulative = -1.10345
ExecutionTime = 0.35 s  ClockTime = 1 s

Time = 102

smoothSolver:  Solving for Uy, Initial residual = 0.000293992, Final residual = 2.20655e-05, No Iterations 2
smoothSolver:  Solving for Uz, Initial residual = 0.000287311, Final residual = 1.35635e-05, No Iterations 2
smoothSolver:  Solving for h, Initial residual = 0.00135294, Final residual = 0.000109643, No Iterations 2
GAMG:  Solving for p, Initial residual = 0.000181492, Final residual = 7.40738e-06, No Iterations 4
time step continuity errors : sum local = 0.000353071, global = 1.50283e-05, cumulative = -1.10343
ExecutionTime = 0.35 s  ClockTime = 1 s

Time = 103

smoothSolver:  Solving for Uy, Initial residual = 0.000288022, Final residual = 2.16197e-05, No Iterations 2
smoothSolver:  Solving for Uz, Initial residual = 0.000281715, Final residual = 1.32939e-05, No Iterations 2
smoothSolver:  Solving for h, Initial residual = 0.00132982, Final residual = 0.000107774, No Iterations 2
GAMG:  Solving for p, Initial residual = 0.000177439, Final residual = 7.51394e-06, No Iterations 4
time step continuity errors : sum local = 0.00035811, global = 1.61924e-05, cumulative = -1.10341
ExecutionTime = 0.35 s  ClockTime = 1 s

Time = 104

smoothSolver:  Solving for Uy, Initial residual = 0.000282295, Final residual = 2.11922e-05, No Iterations 2
smoothSolver:  Solving for Uz, Initial residual = 0.000276227, Final residual = 1.30297e-05, No Iterations 2
smoothSolver:  Solving for h, Initial residual = 0.00130718, Final residual = 0.000105943, No Iterations 2
GAMG:  Solving for p, Initial residual = 0.000173874, Final residual = 7.57776e-06, No Iterations 4
time step continuity errors : sum local = 0.000361174, global = 1.72487e-05, cumulative = -1.1034
ExecutionTime = 0.36 s  ClockTime = 1 s

Time = 105

smoothSolver:  Solving for Uy, Initial residual = 0.000276732, Final residual = 2.07768e-05, No Iterations 2
smoothSolver:  Solving for Uz, Initial residual = 0.000270848, Final residual = 1.2771e-05, No Iterations 2
smoothSolver:  Solving for h, Initial residual = 0.00128501, Final residual = 0.000104151, No Iterations 2
GAMG:  Solving for p, Initial residual = 0.00017001, Final residual = 7.76636e-06, No Iterations 4
time step continuity errors : sum local = 0.000370119, global = 9.95293e-06, cumulative = -1.10339
ExecutionTime = 0.36 s  ClockTime = 1 s

Time = 106

smoothSolver:  Solving for Uy, Initial residual = 0.000271248, Final residual = 2.03671e-05, No Iterations 2
smoothSolver:  Solving for Uz, Initial residual = 0.00026558, Final residual = 1.2518e-05, No Iterations 2
smoothSolver:  Solving for h, Initial residual = 0.00126329, Final residual = 0.000102395, No Iterations 2
GAMG:  Solving for p, Initial residual = 0.000165342, Final residual = 6.93718e-06, No Iterations 4
time step continuity errors : sum local = 0.000330604, global = 1.48251e-05, cumulative = -1.10337
ExecutionTime = 0.36 s  ClockTime = 1 s

Time = 107

smoothSolver:  Solving for Uy, Initial residual = 0.000265748, Final residual = 1.99557e-05, No Iterations 2
smoothSolver:  Solving for Uz, Initial residual = 0.000260409, Final residual = 1.22693e-05, No Iterations 2
smoothSolver:  Solving for h, Initial residual = 0.00124201, Final residual = 0.000100674, No Iterations 2
GAMG:  Solving for p, Initial residual = 0.000161265, Final residual = 6.66672e-06, No Iterations 4
time step continuity errors : sum local = 0.000317714, global = 1.4002e-05, cumulative = -1.10336
ExecutionTime = 0.37 s  ClockTime = 1 s

Time = 108

smoothSolver:  Solving for Uy, Initial residual = 0.000260323, Final residual = 1.95499e-05, No Iterations 2
smoothSolver:  Solving for Uz, Initial residual = 0.000255345, Final residual = 1.20259e-05, No Iterations 2
smoothSolver:  Solving for h, Initial residual = 0.00122116, Final residual = 9.8988e-05, No Iterations 2
GAMG:  Solving for p, Initial residual = 0.000157836, Final residual = 6.61149e-06, No Iterations 4
time step continuity errors : sum local = 0.000315041, global = 1.44344e-05, cumulative = -1.10334
ExecutionTime = 0.37 s  ClockTime = 1 s

Time = 109

smoothSolver:  Solving for Uy, Initial residual = 0.000255059, Final residual = 1.91561e-05, No Iterations 2
smoothSolver:  Solving for Uz, Initial residual = 0.000250384, Final residual = 1.17879e-05, No Iterations 2
smoothSolver:  Solving for h, Initial residual = 0.00120072, Final residual = 9.73359e-05, No Iterations 2
GAMG:  Solving for p, Initial residual = 0.0001546, Final residual = 6.87504e-06, No Iterations 4
time step continuity errors : sum local = 0.000327602, global = 8.7411e-06, cumulative = -1.10334
ExecutionTime = 0.37 s  ClockTime = 1 s

Time = 110

smoothSolver:  Solving for Uy, Initial residual = 0.000249993, Final residual = 1.87771e-05, No Iterations 2
smoothSolver:  Solving for Uz, Initial residual = 0.000245524, Final residual = 1.15551e-05, No Iterations 2
smoothSolver:  Solving for h, Initial residual = 0.00118069, Final residual = 9.57165e-05, No Iterations 2
GAMG:  Solving for p, Initial residual = 0.000150845, Final residual = 6.57059e-06, No Iterations 4
time step continuity errors : sum local = 0.00031307, global = 8.22755e-06, cumulative = -1.10333
ExecutionTime = 0.38 s  ClockTime = 1 s

Time = 111

smoothSolver:  Solving for Uy, Initial residual = 0.00024504, Final residual = 1.84066e-05, No Iterations 2
smoothSolver:  Solving for Uz, Initial residual = 0.000240753, Final residual = 1.13264e-05, No Iterations 2
smoothSolver:  Solving for h, Initial residual = 0.00116107, Final residual = 9.41295e-05, No Iterations 2
GAMG:  Solving for p, Initial residual = 0.00014739, Final residual = 6.10106e-06, No Iterations 4
time step continuity errors : sum local = 0.000290695, global = 1.28635e-05, cumulative = -1.10331
ExecutionTime = 0.38 s  ClockTime = 1 s

Time = 112

smoothSolver:  Solving for Uy, Initial residual = 0.000240137, Final residual = 1.80396e-05, No Iterations 2
smoothSolver:  Solving for Uz, Initial residual = 0.000236069, Final residual = 1.11016e-05, No Iterations 2
smoothSolver:  Solving for h, Initial residual = 0.00114184, Final residual = 9.2574e-05, No Iterations 2
GAMG:  Solving for p, Initial residual = 0.000144383, Final residual = 6.01377e-06, No Iterations 4
time step continuity errors : sum local = 0.000286542, global = 1.32095e-05, cumulative = -1.1033
ExecutionTime = 0.38 s  ClockTime = 1 s

Time = 113

smoothSolver:  Solving for Uy, Initial residual = 0.000235325, Final residual = 1.76792e-05, No Iterations 2
smoothSolver:  Solving for Uz, Initial residual = 0.000231483, Final residual = 1.08818e-05, No Iterations 2
smoothSolver:  Solving for h, Initial residual = 0.00112299, Final residual = 9.10491e-05, No Iterations 2
GAMG:  Solving for p, Initial residual = 0.000141716, Final residual = 5.99481e-06, No Iterations 4
time step continuity errors : sum local = 0.000285642, global = 1.41732e-05, cumulative = -1.10329
ExecutionTime = 0.38 s  ClockTime = 1 s

Time = 114

smoothSolver:  Solving for Uy, Initial residual = 0.000230631, Final residual = 1.73277e-05, No Iterations 2
smoothSolver:  Solving for Uz, Initial residual = 0.000226993, Final residual = 1.06669e-05, No Iterations 2
smoothSolver:  Solving for h, Initial residual = 0.00110451, Final residual = 8.9554e-05, No Iterations 2
GAMG:  Solving for p, Initial residual = 0.000138768, Final residual = 6.3131e-06, No Iterations 4
time step continuity errors : sum local = 0.000300769, global = 8.12383e-06, cumulative = -1.10328
ExecutionTime = 0.39 s  ClockTime = 1 s

Time = 115

smoothSolver:  Solving for Uy, Initial residual = 0.000226061, Final residual = 1.69854e-05, No Iterations 2
smoothSolver:  Solving for Uz, Initial residual = 0.000222595, Final residual = 1.04569e-05, No Iterations 2
smoothSolver:  Solving for h, Initial residual = 0.00108639, Final residual = 8.8088e-05, No Iterations 2
GAMG:  Solving for p, Initial residual = 0.000134988, Final residual = 5.63105e-06, No Iterations 4
time step continuity errors : sum local = 0.000268276, global = 1.29402e-05, cumulative = -1.10327
ExecutionTime = 0.39 s  ClockTime = 1 s

Time = 116

smoothSolver:  Solving for Uy, Initial residual = 0.000221545, Final residual = 1.66471e-05, No Iterations 2
smoothSolver:  Solving for Uz, Initial residual = 0.000218274, Final residual = 1.02502e-05, No Iterations 2
smoothSolver:  Solving for h, Initial residual = 0.00106862, Final residual = 8.66503e-05, No Iterations 2
GAMG:  Solving for p, Initial residual = 0.000131836, Final residual = 5.45887e-06, No Iterations 4
time step continuity errors : sum local = 0.000260073, global = 1.23328e-05, cumulative = -1.10325
ExecutionTime = 0.39 s  ClockTime = 1 s

Time = 117

smoothSolver:  Solving for Uy, Initial residual = 0.000217115, Final residual = 1.63148e-05, No Iterations 2
smoothSolver:  Solving for Uz, Initial residual = 0.000214038, Final residual = 1.00476e-05, No Iterations 2
smoothSolver:  Solving for h, Initial residual = 0.0010512, Final residual = 8.52402e-05, No Iterations 2
GAMG:  Solving for p, Initial residual = 0.000129153, Final residual = 5.38121e-06, No Iterations 4
time step continuity errors : sum local = 0.000256341, global = 1.25061e-05, cumulative = -1.10324
ExecutionTime = 0.4 s  ClockTime = 1 s

Time = 118

smoothSolver:  Solving for Uy, Initial residual = 0.000212792, Final residual = 1.59906e-05, No Iterations 2
smoothSolver:  Solving for Uz, Initial residual = 0.000209888, Final residual = 9.84927e-06, No Iterations 2
smoothSolver:  Solving for h, Initial residual = 0.00103411, Final residual = 8.38568e-05, No Iterations 2
GAMG:  Solving for p, Initial residual = 0.000126723, Final residual = 5.63052e-06, No Iterations 4
time step continuity errors : sum local = 0.000268233, global = 7.16444e-06, cumulative = -1.10323
ExecutionTime = 0.4 s  ClockTime = 1 s

Time = 119

smoothSolver:  Solving for Uy, Initial residual = 0.000208589, Final residual = 1.56756e-05, No Iterations 2
smoothSolver:  Solving for Uz, Initial residual = 0.000205824, Final residual = 9.6555e-06, No Iterations 2
smoothSolver:  Solving for h, Initial residual = 0.00101734, Final residual = 8.24996e-05, No Iterations 2
GAMG:  Solving for p, Initial residual = 0.000123732, Final residual = 5.14256e-06, No Iterations 4
time step continuity errors : sum local = 0.000244981, global = 1.18507e-05, cumulative = -1.10322
ExecutionTime = 0.4 s  ClockTime = 1 s

Time = 120

smoothSolver:  Solving for Uy, Initial residual = 0.000204448, Final residual = 1.53653e-05, No Iterations 2
smoothSolver:  Solving for Uz, Initial residual = 0.000201833, Final residual = 9.46492e-06, No Iterations 2
smoothSolver:  Solving for h, Initial residual = 0.0010009, Final residual = 8.11681e-05, No Iterations 2
GAMG:  Solving for p, Initial residual = 0.000121045, Final residual = 5.02695e-06, No Iterations 4
time step continuity errors : sum local = 0.000239445, global = 1.18094e-05, cumulative = -1.10321
ExecutionTime = 0.41 s  ClockTime = 1 s

Time = 121

smoothSolver:  Solving for Uy, Initial residual = 0.000200388, Final residual = 1.50609e-05, No Iterations 2
smoothSolver:  Solving for Uz, Initial residual = 0.000197922, Final residual = 9.2783e-06, No Iterations 2
smoothSolver:  Solving for h, Initial residual = 0.000984758, Final residual = 7.98616e-05, No Iterations 2
GAMG:  Solving for p, Initial residual = 0.000118556, Final residual = 4.95086e-06, No Iterations 4
time step continuity errors : sum local = 0.000235846, global = 1.20918e-05, cumulative = -1.1032
ExecutionTime = 0.41 s  ClockTime = 1 s

Time = 122

smoothSolver:  Solving for Uy, Initial residual = 0.000196413, Final residual = 1.47632e-05, No Iterations 2
smoothSolver:  Solving for Uz, Initial residual = 0.00019409, Final residual = 9.0956e-06, No Iterations 2
smoothSolver:  Solving for h, Initial residual = 0.000968923, Final residual = 7.85795e-05, No Iterations 2
GAMG:  Solving for p, Initial residual = 0.00011612, Final residual = 5.23521e-06, No Iterations 4
time step continuity errors : sum local = 0.000249373, global = 6.62884e-06, cumulative = -1.10319
ExecutionTime = 0.41 s  ClockTime = 1 s

Time = 123

smoothSolver:  Solving for Uy, Initial residual = 0.000192534, Final residual = 1.44728e-05, No Iterations 2
smoothSolver:  Solving for Uz, Initial residual = 0.000190337, Final residual = 8.91701e-06, No Iterations 2
smoothSolver:  Solving for h, Initial residual = 0.000953382, Final residual = 7.73212e-05, No Iterations 2
GAMG:  Solving for p, Initial residual = 0.000113268, Final residual = 4.6517e-06, No Iterations 4
time step continuity errors : sum local = 0.000221574, global = 1.0877e-05, cumulative = -1.10318
ExecutionTime = 0.42 s  ClockTime = 1 s

Time = 124

smoothSolver:  Solving for Uy, Initial residual = 0.00018871, Final residual = 1.41863e-05, No Iterations 2
smoothSolver:  Solving for Uz, Initial residual = 0.00018665, Final residual = 8.74125e-06, No Iterations 2
smoothSolver:  Solving for h, Initial residual = 0.000938131, Final residual = 7.60862e-05, No Iterations 2
GAMG:  Solving for p, Initial residual = 0.000110824, Final residual = 4.54557e-06, No Iterations 4
time step continuity errors : sum local = 0.000216524, global = 1.0678e-05, cumulative = -1.10317
ExecutionTime = 0.42 s  ClockTime = 1 s

Time = 125

smoothSolver:  Solving for Uy, Initial residual = 0.000184967, Final residual = 1.3906e-05, No Iterations 2
smoothSolver:  Solving for Uz, Initial residual = 0.000183036, Final residual = 8.5691e-06, No Iterations 2
smoothSolver:  Solving for h, Initial residual = 0.00092316, Final residual = 7.48738e-05, No Iterations 2
GAMG:  Solving for p, Initial residual = 0.000108671, Final residual = 4.49587e-06, No Iterations 4
time step continuity errors : sum local = 0.000214133, global = 1.11257e-05, cumulative = -1.10316
ExecutionTime = 0.42 s  ClockTime = 1 s

Time = 126

smoothSolver:  Solving for Uy, Initial residual = 0.000181315, Final residual = 1.36325e-05, No Iterations 2
smoothSolver:  Solving for Uz, Initial residual = 0.000179496, Final residual = 8.40063e-06, No Iterations 2
smoothSolver:  Solving for h, Initial residual = 0.000908463, Final residual = 7.36835e-05, No Iterations 2
GAMG:  Solving for p, Initial residual = 0.000106547, Final residual = 4.44771e-06, No Iterations 4
time step continuity errors : sum local = 0.00021184, global = 1.15964e-05, cumulative = -1.10315
ExecutionTime = 0.42 s  ClockTime = 1 s

Time = 127

smoothSolver:  Solving for Uy, Initial residual = 0.000177747, Final residual = 1.33652e-05, No Iterations 2
smoothSolver:  Solving for Uz, Initial residual = 0.000176026, Final residual = 8.23567e-06, No Iterations 2
smoothSolver:  Solving for h, Initial residual = 0.000894034, Final residual = 7.25149e-05, No Iterations 2
GAMG:  Solving for p, Initial residual = 0.000104248, Final residual = 3.86529e-06, No Iterations 4
time step continuity errors : sum local = 0.000184086, global = 8.28412e-06, cumulative = -1.10314
ExecutionTime = 0.43 s  ClockTime = 1 s

Time = 128

smoothSolver:  Solving for Uy, Initial residual = 0.000174278, Final residual = 1.31053e-05, No Iterations 2
smoothSolver:  Solving for Uz, Initial residual = 0.000172626, Final residual = 8.07425e-06, No Iterations 2
smoothSolver:  Solving for h, Initial residual = 0.000879868, Final residual = 7.13675e-05, No Iterations 2
GAMG:  Solving for p, Initial residual = 0.000101424, Final residual = 4.4945e-06, No Iterations 4
time step continuity errors : sum local = 0.000214069, global = 5.52647e-06, cumulative = -1.10313
ExecutionTime = 0.43 s  ClockTime = 1 s

Time = 129

smoothSolver:  Solving for Uy, Initial residual = 0.000170832, Final residual = 1.28468e-05, No Iterations 2
smoothSolver:  Solving for Uz, Initial residual = 0.000169288, Final residual = 7.91563e-06, No Iterations 2
smoothSolver:  Solving for h, Initial residual = 0.000865959, Final residual = 7.02409e-05, No Iterations 2
GAMG:  Solving for p, Initial residual = 9.90256e-05, Final residual = 3.93416e-06, No Iterations 4
time step continuity errors : sum local = 0.000187383, global = 8.88451e-06, cumulative = -1.10312
ExecutionTime = 0.43 s  ClockTime = 1 s

Time = 130

smoothSolver:  Solving for Uy, Initial residual = 0.000167425, Final residual = 1.25911e-05, No Iterations 2
smoothSolver:  Solving for Uz, Initial residual = 0.000166013, Final residual = 7.75978e-06, No Iterations 2
smoothSolver:  Solving for h, Initial residual = 0.000852302, Final residual = 6.91346e-05, No Iterations 2
GAMG:  Solving for p, Initial residual = 9.72435e-05, Final residual = 3.94047e-06, No Iterations 4
time step continuity errors : sum local = 0.000187637, global = 9.06702e-06, cumulative = -1.10312
ExecutionTime = 0.44 s  ClockTime = 1 s

Time = 131

smoothSolver:  Solving for Uy, Initial residual = 0.000164121, Final residual = 1.23432e-05, No Iterations 2
smoothSolver:  Solving for Uz, Initial residual = 0.000162806, Final residual = 7.60741e-06, No Iterations 2
smoothSolver:  Solving for h, Initial residual = 0.000838892, Final residual = 6.80482e-05, No Iterations 2
GAMG:  Solving for p, Initial residual = 9.58142e-05, Final residual = 3.98013e-06, No Iterations 4
time step continuity errors : sum local = 0.000189551, global = 1.01615e-05, cumulative = -1.10311
ExecutionTime = 0.44 s  ClockTime = 1 s

Time = 132

smoothSolver:  Solving for Uy, Initial residual = 0.000160929, Final residual = 1.21038e-05, No Iterations 2
smoothSolver:  Solving for Uz, Initial residual = 0.000159663, Final residual = 7.45836e-06, No Iterations 2
smoothSolver:  Solving for h, Initial residual = 0.000825724, Final residual = 6.69814e-05, No Iterations 2
GAMG:  Solving for p, Initial residual = 9.40043e-05, Final residual = 3.94579e-06, No Iterations 4
time step continuity errors : sum local = 0.000187912, global = 1.09719e-05, cumulative = -1.10309
ExecutionTime = 0.44 s  ClockTime = 1 s

Time = 133

smoothSolver:  Solving for Uy, Initial residual = 0.000157808, Final residual = 1.18699e-05, No Iterations 2
smoothSolver:  Solving for Uz, Initial residual = 0.000156582, Final residual = 7.31234e-06, No Iterations 2
smoothSolver:  Solving for h, Initial residual = 0.000812792, Final residual = 6.59337e-05, No Iterations 2
GAMG:  Solving for p, Initial residual = 9.17741e-05, Final residual = 3.43519e-06, No Iterations 4
time step continuity errors : sum local = 0.000163604, global = 7.55137e-06, cumulative = -1.10309
ExecutionTime = 0.45 s  ClockTime = 1 s

Time = 134

smoothSolver:  Solving for Uy, Initial residual = 0.000154746, Final residual = 1.16404e-05, No Iterations 2
smoothSolver:  Solving for Uz, Initial residual = 0.000153563, Final residual = 7.16935e-06, No Iterations 2
smoothSolver:  Solving for h, Initial residual = 0.00080009, Final residual = 6.49044e-05, No Iterations 2
GAMG:  Solving for p, Initial residual = 8.92685e-05, Final residual = 3.96952e-06, No Iterations 4
time step continuity errors : sum local = 0.000189039, global = 4.84298e-06, cumulative = -1.10308
ExecutionTime = 0.46 s  ClockTime = 1 s

Time = 135

smoothSolver:  Solving for Uy, Initial residual = 0.000151689, Final residual = 1.14109e-05, No Iterations 2
smoothSolver:  Solving for Uz, Initial residual = 0.000150598, Final residual = 7.02877e-06, No Iterations 2
smoothSolver:  Solving for h, Initial residual = 0.000787611, Final residual = 6.38932e-05, No Iterations 2
GAMG:  Solving for p, Initial residual = 8.70776e-05, Final residual = 3.38054e-06, No Iterations 4
time step continuity errors : sum local = 0.000160978, global = 7.62298e-06, cumulative = -1.10307
ExecutionTime = 0.46 s  ClockTime = 1 s

Time = 136

smoothSolver:  Solving for Uy, Initial residual = 0.00014867, Final residual = 1.1184e-05, No Iterations 2
smoothSolver:  Solving for Uz, Initial residual = 0.000147688, Final residual = 6.89062e-06, No Iterations 2
smoothSolver:  Solving for h, Initial residual = 0.000775351, Final residual = 6.28998e-05, No Iterations 2
GAMG:  Solving for p, Initial residual = 8.55309e-05, Final residual = 3.41726e-06, No Iterations 4
time step continuity errors : sum local = 0.000162721, global = 7.83107e-06, cumulative = -1.10307
ExecutionTime = 0.46 s  ClockTime = 1 s

Time = 137

smoothSolver:  Solving for Uy, Initial residual = 0.000145754, Final residual = 1.09649e-05, No Iterations 2
smoothSolver:  Solving for Uz, Initial residual = 0.000144839, Final residual = 6.75561e-06, No Iterations 2
smoothSolver:  Solving for h, Initial residual = 0.000763307, Final residual = 6.19237e-05, No Iterations 2
GAMG:  Solving for p, Initial residual = 8.43967e-05, Final residual = 3.48425e-06, No Iterations 4
time step continuity errors : sum local = 0.000165923, global = 9.08512e-06, cumulative = -1.10306
ExecutionTime = 0.47 s  ClockTime = 1 s

Time = 138

smoothSolver:  Solving for Uy, Initial residual = 0.000142943, Final residual = 1.07537e-05, No Iterations 2
smoothSolver:  Solving for Uz, Initial residual = 0.000142048, Final residual = 6.6236e-06, No Iterations 2
smoothSolver:  Solving for h, Initial residual = 0.000751473, Final residual = 6.09647e-05, No Iterations 2
GAMG:  Solving for p, Initial residual = 8.28253e-05, Final residual = 3.46844e-06, No Iterations 4
time step continuity errors : sum local = 0.00016516, global = 1.00541e-05, cumulative = -1.10305
ExecutionTime = 0.47 s  ClockTime = 1 s

Time = 139

smoothSolver:  Solving for Uy, Initial residual = 0.000140191, Final residual = 1.05472e-05, No Iterations 2
smoothSolver:  Solving for Uz, Initial residual = 0.000139312, Final residual = 6.49427e-06, No Iterations 2
smoothSolver:  Solving for h, Initial residual = 0.000739847, Final residual = 6.00224e-05, No Iterations 2
GAMG:  Solving for p, Initial residual = 8.08226e-05, Final residual = 3.04438e-06, No Iterations 4
time step continuity errors : sum local = 0.000144947, global = 6.79696e-06, cumulative = -1.10304
ExecutionTime = 0.47 s  ClockTime = 1 s

Time = 140

smoothSolver:  Solving for Uy, Initial residual = 0.000137484, Final residual = 1.03442e-05, No Iterations 2
smoothSolver:  Solving for Uz, Initial residual = 0.000136629, Final residual = 6.36757e-06, No Iterations 2
smoothSolver:  Solving for h, Initial residual = 0.000728423, Final residual = 5.90965e-05, No Iterations 2
GAMG:  Solving for p, Initial residual = 7.86407e-05, Final residual = 2.79756e-06, No Iterations 4
time step continuity errors : sum local = 0.000133232, global = 5.88845e-06, cumulative = -1.10303
ExecutionTime = 0.47 s  ClockTime = 1 s

Time = 141

smoothSolver:  Solving for Uy, Initial residual = 0.000134791, Final residual = 1.0142e-05, No Iterations 2
smoothSolver:  Solving for Uz, Initial residual = 0.000133995, Final residual = 6.2429e-06, No Iterations 2
smoothSolver:  Solving for h, Initial residual = 0.000717195, Final residual = 5.81864e-05, No Iterations 2
GAMG:  Solving for p, Initial residual = 7.68404e-05, Final residual = 2.91274e-06, No Iterations 4
time step continuity errors : sum local = 0.000138703, global = 7.32282e-06, cumulative = -1.10303
ExecutionTime = 0.48 s  ClockTime = 1 s

Time = 142

smoothSolver:  Solving for Uy, Initial residual = 0.000132116, Final residual = 9.94112e-06, No Iterations 2
smoothSolver:  Solving for Uz, Initial residual = 0.000131409, Final residual = 6.12042e-06, No Iterations 2
smoothSolver:  Solving for h, Initial residual = 0.000706161, Final residual = 5.7292e-05, No Iterations 2
GAMG:  Solving for p, Initial residual = 7.51947e-05, Final residual = 2.96724e-06, No Iterations 4
time step continuity errors : sum local = 0.000141287, global = 7.31478e-06, cumulative = -1.10302
ExecutionTime = 0.48 s  ClockTime = 1 s

Time = 143

smoothSolver:  Solving for Uy, Initial residual = 0.000129521, Final residual = 9.74636e-06, No Iterations 2
smoothSolver:  Solving for Uz, Initial residual = 0.000128879, Final residual = 6.00087e-06, No Iterations 2
smoothSolver:  Solving for h, Initial residual = 0.000695315, Final residual = 5.64128e-05, No Iterations 2
GAMG:  Solving for p, Initial residual = 7.43326e-05, Final residual = 3.05465e-06, No Iterations 4
time step continuity errors : sum local = 0.000145439, global = 8.11067e-06, cumulative = -1.10301
ExecutionTime = 0.48 s  ClockTime = 1 s

Time = 144

smoothSolver:  Solving for Uy, Initial residual = 0.000127027, Final residual = 9.55926e-06, No Iterations 2
smoothSolver:  Solving for Uz, Initial residual = 0.000126401, Final residual = 5.88394e-06, No Iterations 2
smoothSolver:  Solving for h, Initial residual = 0.000684654, Final residual = 5.55486e-05, No Iterations 2
GAMG:  Solving for p, Initial residual = 7.30475e-05, Final residual = 3.04339e-06, No Iterations 4
time step continuity errors : sum local = 0.000144891, global = 8.80073e-06, cumulative = -1.103
ExecutionTime = 0.49 s  ClockTime = 1 s

Time = 145

smoothSolver:  Solving for Uy, Initial residual = 0.000124602, Final residual = 9.37749e-06, No Iterations 2
smoothSolver:  Solving for Uz, Initial residual = 0.000123969, Final residual = 5.76927e-06, No Iterations 2
smoothSolver:  Solving for h, Initial residual = 0.000674176, Final residual = 5.46992e-05, No Iterations 2
GAMG:  Solving for p, Initial residual = 7.12771e-05, Final residual = 2.65477e-06, No Iterations 4
time step continuity errors : sum local = 0.000126402, global = 5.88184e-06, cumulative = -1.103
ExecutionTime = 0.49 s  ClockTime = 1 s

Time = 146

smoothSolver:  Solving for Uy, Initial residual = 0.000122221, Final residual = 9.199e-06, No Iterations 2
smoothSolver:  Solving for Uz, Initial residual = 0.000121585, Final residual = 5.65687e-06, No Iterations 2
smoothSolver:  Solving for h, Initial residual = 0.000663878, Final residual = 5.38643e-05, No Iterations 2
GAMG:  Solving for p, Initial residual = 6.94553e-05, Final residual = 2.44299e-06, No Iterations 4
time step continuity errors : sum local = 0.000116306, global = 5.18207e-06, cumulative = -1.10299
ExecutionTime = 0.49 s  ClockTime = 1 s

Time = 147

smoothSolver:  Solving for Uy, Initial residual = 0.000119842, Final residual = 9.02051e-06, No Iterations 2
smoothSolver:  Solving for Uz, Initial residual = 0.000119243, Final residual = 5.5463e-06, No Iterations 2
smoothSolver:  Solving for h, Initial residual = 0.000653754, Final residual = 5.30434e-05, No Iterations 2
GAMG:  Solving for p, Initial residual = 6.79554e-05, Final residual = 2.54481e-06, No Iterations 4
time step continuity errors : sum local = 0.000121158, global = 6.60529e-06, cumulative = -1.10299
ExecutionTime = 0.5 s  ClockTime = 1 s

Time = 148

smoothSolver:  Solving for Uy, Initial residual = 0.000117475, Final residual = 8.84267e-06, No Iterations 2
smoothSolver:  Solving for Uz, Initial residual = 0.000116945, Final residual = 5.4377e-06, No Iterations 2
smoothSolver:  Solving for h, Initial residual = 0.0006438, Final residual = 5.22363e-05, No Iterations 2
GAMG:  Solving for p, Initial residual = 6.63911e-05, Final residual = 2.59539e-06, No Iterations 4
time step continuity errors : sum local = 0.000123547, global = 6.70504e-06, cumulative = -1.10298
ExecutionTime = 0.5 s  ClockTime = 1 s

Time = 149

smoothSolver:  Solving for Uy, Initial residual = 0.000115181, Final residual = 8.67018e-06, No Iterations 2
smoothSolver:  Solving for Uz, Initial residual = 0.000114698, Final residual = 5.3317e-06, No Iterations 2
smoothSolver:  Solving for h, Initial residual = 0.000634013, Final residual = 5.14427e-05, No Iterations 2
GAMG:  Solving for p, Initial residual = 6.55789e-05, Final residual = 2.67667e-06, No Iterations 4
time step continuity errors : sum local = 0.000127432, global = 7.37014e-06, cumulative = -1.10297
ExecutionTime = 0.5 s  ClockTime = 1 s

Time = 150

smoothSolver:  Solving for Uy, Initial residual = 0.000112975, Final residual = 8.5044e-06, No Iterations 2
smoothSolver:  Solving for Uz, Initial residual = 0.000112495, Final residual = 5.22805e-06, No Iterations 2
smoothSolver:  Solving for h, Initial residual = 0.00062439, Final residual = 5.06624e-05, No Iterations 2
GAMG:  Solving for p, Initial residual = 6.44453e-05, Final residual = 2.66625e-06, No Iterations 4
time step continuity errors : sum local = 0.000126935, global = 7.88423e-06, cumulative = -1.10296
ExecutionTime = 0.51 s  ClockTime = 1 s

Time = 151

smoothSolver:  Solving for Uy, Initial residual = 0.000110829, Final residual = 8.34323e-06, No Iterations 2
smoothSolver:  Solving for Uz, Initial residual = 0.000110335, Final residual = 5.1264e-06, No Iterations 2
smoothSolver:  Solving for h, Initial residual = 0.000614929, Final residual = 4.98952e-05, No Iterations 2
GAMG:  Solving for p, Initial residual = 6.28622e-05, Final residual = 2.32806e-06, No Iterations 4
time step continuity errors : sum local = 0.000110827, global = 5.18525e-06, cumulative = -1.10296
ExecutionTime = 0.51 s  ClockTime = 1 s

Time = 152

smoothSolver:  Solving for Uy, Initial residual = 0.000108719, Final residual = 8.18503e-06, No Iterations 2
smoothSolver:  Solving for Uz, Initial residual = 0.000108216, Final residual = 5.02673e-06, No Iterations 2
smoothSolver:  Solving for h, Initial residual = 0.000605625, Final residual = 4.91408e-05, No Iterations 2
GAMG:  Solving for p, Initial residual = 6.12992e-05, Final residual = 2.13925e-06, No Iterations 4
time step continuity errors : sum local = 0.000101816, global = 4.4714e-06, cumulative = -1.10295
ExecutionTime = 0.52 s  ClockTime = 1 s

Time = 153

smoothSolver:  Solving for Uy, Initial residual = 0.000106615, Final residual = 8.02722e-06, No Iterations 2
smoothSolver:  Solving for Uz, Initial residual = 0.000106135, Final residual = 4.92865e-06, No Iterations 2
smoothSolver:  Solving for h, Initial residual = 0.000596477, Final residual = 4.83989e-05, No Iterations 2
GAMG:  Solving for p, Initial residual = 6.00345e-05, Final residual = 2.22527e-06, No Iterations 4
time step continuity errors : sum local = 0.000105957, global = 5.85452e-06, cumulative = -1.10295
ExecutionTime = 0.52 s  ClockTime = 1 s

Time = 154

smoothSolver:  Solving for Uy, Initial residual = 0.000104526, Final residual = 7.87032e-06, No Iterations 2
smoothSolver:  Solving for Uz, Initial residual = 0.000104093, Final residual = 4.8323e-06, No Iterations 2
smoothSolver:  Solving for h, Initial residual = 0.00058748, Final residual = 4.76693e-05, No Iterations 2
GAMG:  Solving for p, Initial residual = 5.86389e-05, Final residual = 2.27459e-06, No Iterations 4
time step continuity errors : sum local = 0.000108278, global = 6.00617e-06, cumulative = -1.10294
ExecutionTime = 0.52 s  ClockTime = 1 s

Time = 155

smoothSolver:  Solving for Uy, Initial residual = 0.000102501, Final residual = 7.71812e-06, No Iterations 2
smoothSolver:  Solving for Uz, Initial residual = 0.000102095, Final residual = 4.73826e-06, No Iterations 2
smoothSolver:  Solving for h, Initial residual = 0.000578631, Final residual = 4.69517e-05, No Iterations 2
GAMG:  Solving for p, Initial residual = 5.79099e-05, Final residual = 2.34821e-06, No Iterations 4
time step continuity errors : sum local = 0.000111792, global = 6.6661e-06, cumulative = -1.10294
ExecutionTime = 0.53 s  ClockTime = 1 s

Time = 156

smoothSolver:  Solving for Uy, Initial residual = 0.00010055, Final residual = 7.57159e-06, No Iterations 2
smoothSolver:  Solving for Uz, Initial residual = 0.000100137, Final residual = 4.64632e-06, No Iterations 2
smoothSolver:  Solving for h, Initial residual = 0.000569926, Final residual = 4.62457e-05, No Iterations 2
GAMG:  Solving for p, Initial residual = 5.69071e-05, Final residual = 2.33845e-06, No Iterations 4
time step continuity errors : sum local = 0.000111335, global = 7.15449e-06, cumulative = -1.10293
ExecutionTime = 0.53 s  ClockTime = 1 s

Time = 157

smoothSolver:  Solving for Uy, Initial residual = 9.86481e-05, Final residual = 7.42879e-06, No Iterations 2
smoothSolver:  Solving for Uz, Initial residual = 9.82174e-05, Final residual = 4.55615e-06, No Iterations 2
smoothSolver:  Solving for h, Initial residual = 0.000561364, Final residual = 4.55513e-05, No Iterations 2
GAMG:  Solving for p, Initial residual = 5.54853e-05, Final residual = 2.0536e-06, No Iterations 4
time step continuity errors : sum local = 9.77638e-05, global = 4.60994e-06, cumulative = -1.10292
ExecutionTime = 0.53 s  ClockTime = 1 s


SIMPLE solution converged in 157 iterations

End

