/*---------------------------------------------------------------------------*\
  =========                 |
  \\      /  F ield         | OpenFOAM: The Open Source CFD Toolbox
   \\    /   O peration     | Website:  https://openfoam.org
    \\  /    A nd           | Version:  7
     \\/     M anipulation  |
\*---------------------------------------------------------------------------*/
Build  : 7-3bcbaf946ae9
Exec   : polymSimpleFoam -parallel
Date   : Jun 04 2022
Time   : 03:02:50
Host   : "anuar"
PID    : 47398
I/O    : uncollated
Case   : /home/anuar/OpenFOAM/anuar-7/run/cases/pelletExtruder/old/MRF_SIMPLE
nProcs : 4
Slaves : 
3
(
"anuar.47399"
"anuar.47400"
"anuar.47401"
)

Pstream initialized with:
    floatTransfer      : 0
    nProcsSimpleSum    : 0
    commsType          : nonBlocking
    polling iterations : 0
sigFpe : Enabling floating point exception trapping (FOAM_SIGFPE).
fileModificationChecking : Monitoring run-time modified files using timeStampMaster (fileModificationSkew 10)
allowSystemOperations : Allowing user-supplied system call operations

// * * * * * * * * * * * * * * * * * * * * * * * * * * * * * * * * * * * * * //
Create time

Create mesh for time = 0


SIMPLE: Convergence criteria found
        p: tolerance 1e-06
        U: tolerance 1e-05
        h: tolerance 1e-07

Reading thermophysical properties

Selecting thermodynamics package 
{
    type            heRhoThermo;
    mixture         pureMixture;
    transport       polymerKWLF;
    thermo          hPolymer;
    equationOfState rhoPolymerEOS;
    specie          specie;
    energy          sensibleEnthalpy;
}

Reading field U

Reading/calculating face flux field phi

pressureControl
    pMax 2e+07
    pMin 99000

Creating turbulence model

Selecting turbulence model type laminar
Selecting laminar stress model generalizedNewtonian
Selecting generalized Newtonian model CrossPowerLaw
Creating MRF zone list from MRFProperties
    creating MRF zone: MRF1
Creating finite volume options from "constant/fvOptions"

Selecting finite volume options model type limitTemperature
    Source: limitT
    - selecting all cells
    - selected 564757 cell(s) with volume 3.3234e-06
Courant Number mean: 0 max: 0

Starting time loop



Time = 1

Courant Number mean: 0 max: 0
smoothSolver:  Solving for Ux, Initial residual = 1, Final residual = 0.00853606, No Iterations 12
smoothSolver:  Solving for Uy, Initial residual = 1, Final residual = 0.0025367, No Iterations 1
smoothSolver:  Solving for Uz, Initial residual = 1, Final residual = 0.00850654, No Iterations 12
smoothSolver:  Solving for h, Initial residual = 1, Final residual = 0.00953931, No Iterations 22
GAMG:  Solving for p, Initial residual = 1, Final residual = 0.00715119, No Iterations 3
GAMG:  Solving for p, Initial residual = 0.500983, Final residual = 0.000550974, No Iterations 2
GAMG:  Solving for p, Initial residual = 0.0466664, Final residual = 0.000171149, No Iterations 2
time step continuity errors : sum local = 2.38922, global = -0.0537424, cumulative = -0.0537424
pressureControl: p max 5.29311e+12
ExecutionTime = 2.83 s  ClockTime = 3 s

Time = 2

Courant Number mean: 27217.6 max: 3.00808e+07
smoothSolver:  Solving for Ux, Initial residual = 0.116263, Final residual = 0.000982454, No Iterations 5
smoothSolver:  Solving for Uy, Initial residual = 0.00297142, Final residual = 2.26698e-05, No Iterations 5
smoothSolver:  Solving for Uz, Initial residual = 0.19002, Final residual = 0.00172558, No Iterations 5
smoothSolver:  Solving for h, Initial residual = 0.154077, Final residual = 0.00144363, No Iterations 30
GAMG:  Solving for p, Initial residual = 1, Final residual = 0.00685275, No Iterations 2
GAMG:  Solving for p, Initial residual = 0.14407, Final residual = 0.0011342, No Iterations 2
GAMG:  Solving for p, Initial residual = 0.0307615, Final residual = 0.000288658, No Iterations 3
time step continuity errors : sum local = 1.67072, global = 0.127447, cumulative = 0.0737049
pressureControl: p max 2.10119e+08
pressureControl: p min -2.42012e+08
ExecutionTime = 5.34 s  ClockTime = 5 s

Time = 3

Courant Number mean: 26153.5 max: 2.67535e+08
smoothSolver:  Solving for Ux, Initial residual = 0.211522, Final residual = 0.00177587, No Iterations 9
smoothSolver:  Solving for Uy, Initial residual = 0.00520701, Final residual = 5.15752e-05, No Iterations 9
smoothSolver:  Solving for Uz, Initial residual = 0.164674, Final residual = 0.00159007, No Iterations 9
smoothSolver:  Solving for h, Initial residual = 0.0696565, Final residual = 0.000622447, No Iterations 36
GAMG:  Solving for p, Initial residual = 0.290317, Final residual = 0.000783883, No Iterations 2
GAMG:  Solving for p, Initial residual = 0.0752056, Final residual = 0.000246586, No Iterations 2
GAMG:  Solving for p, Initial residual = 0.0115483, Final residual = 7.08489e-05, No Iterations 3
time step continuity errors : sum local = 0.923211, global = 0.066981, cumulative = 0.140686
pressureControl: p max 4.74377e+07
ExecutionTime = 7.95 s  ClockTime = 8 s

Time = 4

Courant Number mean: 25907.8 max: 1.58227e+09
smoothSolver:  Solving for Ux, Initial residual = 0.116144, Final residual = 0.000954048, No Iterations 10
smoothSolver:  Solving for Uy, Initial residual = 0.00297846, Final residual = 2.64306e-05, No Iterations 12
smoothSolver:  Solving for Uz, Initial residual = 0.0888345, Final residual = 0.000749541, No Iterations 10
smoothSolver:  Solving for h, Initial residual = 0.0453243, Final residual = 0.000399457, No Iterations 38
GAMG:  Solving for p, Initial residual = 0.206929, Final residual = 0.00174577, No Iterations 1
GAMG:  Solving for p, Initial residual = 0.0490044, Final residual = 0.000112446, No Iterations 2
GAMG:  Solving for p, Initial residual = 0.0057824, Final residual = 3.37091e-05, No Iterations 3
time step continuity errors : sum local = 0.986602, global = 0.0391791, cumulative = 0.179865
pressureControl: p max 4.03674e+07
pressureControl: p min -1.98596e+06
ExecutionTime = 10.53 s  ClockTime = 11 s

Time = 5

Courant Number mean: 25705.5 max: 2.76187e+09
smoothSolver:  Solving for Ux, Initial residual = 0.0368757, Final residual = 0.000359891, No Iterations 11
smoothSolver:  Solving for Uy, Initial residual = 0.00135735, Final residual = 1.25628e-05, No Iterations 12
smoothSolver:  Solving for Uz, Initial residual = 0.0416251, Final residual = 0.000364637, No Iterations 12
smoothSolver:  Solving for h, Initial residual = 0.0451348, Final residual = 0.000447874, No Iterations 36
GAMG:  Solving for p, Initial residual = 0.131261, Final residual = 0.000333093, No Iterations 2
GAMG:  Solving for p, Initial residual = 0.0268425, Final residual = 5.93593e-05, No Iterations 2
GAMG:  Solving for p, Initial residual = 0.00332081, Final residual = 2.9205e-05, No Iterations 2
time step continuity errors : sum local = 1.3423, global = -0.129733, cumulative = 0.0501319
pressureControl: p max 3.13625e+07
pressureControl: p min -1.1872e+06
ExecutionTime = 13.14 s  ClockTime = 13 s

Time = 6

Courant Number mean: 25510 max: 3.57565e+09
smoothSolver:  Solving for Ux, Initial residual = 0.0874004, Final residual = 0.00085124, No Iterations 12
smoothSolver:  Solving for Uy, Initial residual = 0.000951369, Final residual = 8.96635e-06, No Iterations 13
smoothSolver:  Solving for Uz, Initial residual = 0.0762685, Final residual = 0.000660942, No Iterations 13
smoothSolver:  Solving for h, Initial residual = 0.0346473, Final residual = 0.000313043, No Iterations 38
GAMG:  Solving for p, Initial residual = 0.106622, Final residual = 0.000445489, No Iterations 2
GAMG:  Solving for p, Initial residual = 0.0190735, Final residual = 7.46958e-05, No Iterations 2
GAMG:  Solving for p, Initial residual = 0.00280718, Final residual = 2.79215e-05, No Iterations 2
time step continuity errors : sum local = 1.1952, global = -0.105181, cumulative = -0.055049
pressureControl: p max 3.30541e+07
pressureControl: p min -997254
ExecutionTime = 15.83 s  ClockTime = 16 s

Time = 7

Courant Number mean: 24855 max: 2.31864e+09
smoothSolver:  Solving for Ux, Initial residual = 0.0159821, Final residual = 0.000131427, No Iterations 13
smoothSolver:  Solving for Uy, Initial residual = 0.000884971, Final residual = 8.74738e-06, No Iterations 13
smoothSolver:  Solving for Uz, Initial residual = 0.0076101, Final residual = 6.91547e-05, No Iterations 13
smoothSolver:  Solving for h, Initial residual = 0.0285364, Final residual = 0.000246745, No Iterations 40
GAMG:  Solving for p, Initial residual = 0.0703755, Final residual = 0.00023964, No Iterations 2
GAMG:  Solving for p, Initial residual = 0.0126396, Final residual = 6.0745e-05, No Iterations 2
GAMG:  Solving for p, Initial residual = 0.00222637, Final residual = 2.06627e-05, No Iterations 2
time step continuity errors : sum local = 0.898915, global = -0.0441048, cumulative = -0.0991538
pressureControl: p max 3.10478e+07
pressureControl: p min -795050
ExecutionTime = 18.5 s  ClockTime = 19 s

Time = 8

Courant Number mean: 24334.5 max: 1.34187e+09
smoothSolver:  Solving for Ux, Initial residual = 0.0748739, Final residual = 0.000657173, No Iterations 13
smoothSolver:  Solving for Uy, Initial residual = 0.000805126, Final residual = 6.79928e-06, No Iterations 14
smoothSolver:  Solving for Uz, Initial residual = 0.0107859, Final residual = 0.000104576, No Iterations 13
smoothSolver:  Solving for h, Initial residual = 0.0228932, Final residual = 0.000186209, No Iterations 42
GAMG:  Solving for p, Initial residual = 0.0580042, Final residual = 0.000215248, No Iterations 2
GAMG:  Solving for p, Initial residual = 0.0101046, Final residual = 5.61683e-05, No Iterations 2
GAMG:  Solving for p, Initial residual = 0.00197041, Final residual = 7.99284e-06, No Iterations 3
time step continuity errors : sum local = 0.306906, global = -0.0102966, cumulative = -0.10945
pressureControl: p max 2.96809e+07
pressureControl: p min -580001
ExecutionTime = 21.22 s  ClockTime = 21 s

Time = 9

Courant Number mean: 23954.5 max: 7.1254e+08
smoothSolver:  Solving for Ux, Initial residual = 0.0393896, Final residual = 0.000358745, No Iterations 13
smoothSolver:  Solving for Uy, Initial residual = 0.000754998, Final residual = 6.5815e-06, No Iterations 14
smoothSolver:  Solving for Uz, Initial residual = 0.00842408, Final residual = 6.85919e-05, No Iterations 14
smoothSolver:  Solving for h, Initial residual = 0.0193943, Final residual = 0.000174195, No Iterations 42
GAMG:  Solving for p, Initial residual = 0.0477402, Final residual = 0.000182309, No Iterations 2
GAMG:  Solving for p, Initial residual = 0.00850141, Final residual = 4.45881e-05, No Iterations 2
GAMG:  Solving for p, Initial residual = 0.0015751, Final residual = 7.35842e-06, No Iterations 3
time step continuity errors : sum local = 0.253217, global = -0.00917327, cumulative = -0.118624
pressureControl: p max 2.83141e+07
pressureControl: p min -436581
ExecutionTime = 23.98 s  ClockTime = 24 s

Time = 10

Courant Number mean: 23645.8 max: 4.9096e+08
smoothSolver:  Solving for Ux, Initial residual = 0.0196603, Final residual = 0.00018543, No Iterations 13
smoothSolver:  Solving for Uy, Initial residual = 0.000713199, Final residual = 6.35174e-06, No Iterations 14
smoothSolver:  Solving for Uz, Initial residual = 0.00854689, Final residual = 7.20085e-05, No Iterations 14
smoothSolver:  Solving for h, Initial residual = 0.0169248, Final residual = 0.000162557, No Iterations 42
GAMG:  Solving for p, Initial residual = 0.0401391, Final residual = 0.000156395, No Iterations 2
GAMG:  Solving for p, Initial residual = 0.00712826, Final residual = 3.45866e-05, No Iterations 2
GAMG:  Solving for p, Initial residual = 0.00127544, Final residual = 6.88314e-06, No Iterations 3
time step continuity errors : sum local = 0.219385, global = -0.0105264, cumulative = -0.12915
pressureControl: p max 2.7113e+07
pressureControl: p min -317238
ExecutionTime = 26.74 s  ClockTime = 27 s

Time = 11

Courant Number mean: 23413.7 max: 4.01191e+08
smoothSolver:  Solving for Ux, Initial residual = 0.0169804, Final residual = 0.000159668, No Iterations 13
smoothSolver:  Solving for Uy, Initial residual = 0.00066326, Final residual = 5.61152e-06, No Iterations 14
smoothSolver:  Solving for Uz, Initial residual = 0.00934907, Final residual = 7.85569e-05, No Iterations 14
smoothSolver:  Solving for h, Initial residual = 0.0151351, Final residual = 0.000122635, No Iterations 44
GAMG:  Solving for p, Initial residual = 0.0333191, Final residual = 0.000113593, No Iterations 2
GAMG:  Solving for p, Initial residual = 0.00571435, Final residual = 2.34912e-05, No Iterations 2
GAMG:  Solving for p, Initial residual = 0.000994999, Final residual = 5.01816e-06, No Iterations 3
time step continuity errors : sum local = 0.158933, global = -0.00764887, cumulative = -0.136799
pressureControl: p max 2.59757e+07
pressureControl: p min -217379
ExecutionTime = 29.49 s  ClockTime = 30 s

Time = 12

Courant Number mean: 23225.3 max: 3.10931e+08
smoothSolver:  Solving for Ux, Initial residual = 0.0150175, Final residual = 0.000137556, No Iterations 13
smoothSolver:  Solving for Uy, Initial residual = 0.000589067, Final residual = 5.54063e-06, No Iterations 13
smoothSolver:  Solving for Uz, Initial residual = 0.0100165, Final residual = 8.25124e-05, No Iterations 14
smoothSolver:  Solving for h, Initial residual = 0.0137036, Final residual = 0.000114643, No Iterations 44
GAMG:  Solving for p, Initial residual = 0.0283706, Final residual = 9.14328e-05, No Iterations 2
GAMG:  Solving for p, Initial residual = 0.00476822, Final residual = 1.92852e-05, No Iterations 2
GAMG:  Solving for p, Initial residual = 0.000841509, Final residual = 3.80879e-06, No Iterations 3
time step continuity errors : sum local = 0.122706, global = -0.00557298, cumulative = -0.142372
pressureControl: p max 2.49575e+07
pressureControl: p min -140557
ExecutionTime = 32.18 s  ClockTime = 32 s

Time = 13

Courant Number mean: 23068.5 max: 2.46203e+08
smoothSolver:  Solving for Ux, Initial residual = 0.0129043, Final residual = 0.000125208, No Iterations 13
smoothSolver:  Solving for Uy, Initial residual = 0.00048989, Final residual = 4.71618e-06, No Iterations 13
smoothSolver:  Solving for Uz, Initial residual = 0.0100765, Final residual = 8.87762e-05, No Iterations 14
smoothSolver:  Solving for h, Initial residual = 0.0125371, Final residual = 0.000107441, No Iterations 44
GAMG:  Solving for p, Initial residual = 0.0246798, Final residual = 7.78806e-05, No Iterations 2
GAMG:  Solving for p, Initial residual = 0.00408403, Final residual = 1.64526e-05, No Iterations 2
GAMG:  Solving for p, Initial residual = 0.000720834, Final residual = 3.09444e-06, No Iterations 3
time step continuity errors : sum local = 0.103031, global = -0.00370516, cumulative = -0.146077
pressureControl: p max 2.40769e+07
pressureControl: p min -101770
ExecutionTime = 34.88 s  ClockTime = 35 s

Time = 14

Courant Number mean: 22935.4 max: 2.00641e+08
smoothSolver:  Solving for Ux, Initial residual = 0.0114318, Final residual = 9.54318e-05, No Iterations 14
smoothSolver:  Solving for Uy, Initial residual = 0.000411723, Final residual = 3.30331e-06, No Iterations 14
smoothSolver:  Solving for Uz, Initial residual = 0.01013, Final residual = 9.71012e-05, No Iterations 14
smoothSolver:  Solving for h, Initial residual = 0.0115638, Final residual = 0.000100958, No Iterations 44
GAMG:  Solving for p, Initial residual = 0.0218713, Final residual = 6.66597e-05, No Iterations 2
GAMG:  Solving for p, Initial residual = 0.00356774, Final residual = 1.49425e-05, No Iterations 2
GAMG:  Solving for p, Initial residual = 0.000641351, Final residual = 2.61513e-06, No Iterations 3
time step continuity errors : sum local = 0.090546, global = -0.00340607, cumulative = -0.149483
pressureControl: p max 2.33232e+07
pressureControl: p min -86834.1
ExecutionTime = 37.57 s  ClockTime = 38 s

Time = 15

Courant Number mean: 22819.6 max: 1.67061e+08
smoothSolver:  Solving for Ux, Initial residual = 0.0104722, Final residual = 9.65822e-05, No Iterations 14
smoothSolver:  Solving for Uy, Initial residual = 0.000354551, Final residual = 3.09365e-06, No Iterations 14
smoothSolver:  Solving for Uz, Initial residual = 0.0104136, Final residual = 8.90261e-05, No Iterations 15
smoothSolver:  Solving for h, Initial residual = 0.0106602, Final residual = 9.5095e-05, No Iterations 44
GAMG:  Solving for p, Initial residual = 0.0196778, Final residual = 5.68474e-05, No Iterations 2
GAMG:  Solving for p, Initial residual = 0.00316696, Final residual = 1.34004e-05, No Iterations 2
GAMG:  Solving for p, Initial residual = 0.000571347, Final residual = 2.25137e-06, No Iterations 3
time step continuity errors : sum local = 0.0812592, global = -0.0031025, cumulative = -0.152586
pressureControl: p max 2.27046e+07
pressureControl: p min -72586.3
ExecutionTime = 40.27 s  ClockTime = 40 s

Time = 16

Courant Number mean: 22717.1 max: 1.3968e+08
smoothSolver:  Solving for Ux, Initial residual = 0.00993928, Final residual = 7.98737e-05, No Iterations 15
smoothSolver:  Solving for Uy, Initial residual = 0.00031728, Final residual = 3.00279e-06, No Iterations 14
smoothSolver:  Solving for Uz, Initial residual = 0.0113814, Final residual = 0.000105608, No Iterations 15
smoothSolver:  Solving for h, Initial residual = 0.00984977, Final residual = 8.9798e-05, No Iterations 44
GAMG:  Solving for p, Initial residual = 0.0179394, Final residual = 4.89395e-05, No Iterations 2
GAMG:  Solving for p, Initial residual = 0.00286335, Final residual = 1.20435e-05, No Iterations 2
GAMG:  Solving for p, Initial residual = 0.000515222, Final residual = 1.98369e-06, No Iterations 3
time step continuity errors : sum local = 0.0742483, global = -0.00266113, cumulative = -0.155247
pressureControl: p max 2.20526e+07
pressureControl: p min -52431.6
ExecutionTime = 42.98 s  ClockTime = 43 s

Time = 17

Courant Number mean: 22625.2 max: 1.14701e+08
smoothSolver:  Solving for Ux, Initial residual = 0.00967848, Final residual = 8.22841e-05, No Iterations 15
smoothSolver:  Solving for Uy, Initial residual = 0.000290826, Final residual = 2.34574e-06, No Iterations 15
smoothSolver:  Solving for Uz, Initial residual = 0.0132801, Final residual = 0.000132343, No Iterations 15
smoothSolver:  Solving for h, Initial residual = 0.00914982, Final residual = 8.498e-05, No Iterations 44
GAMG:  Solving for p, Initial residual = 0.0165727, Final residual = 4.30211e-05, No Iterations 2
GAMG:  Solving for p, Initial residual = 0.00263242, Final residual = 1.08669e-05, No Iterations 2
GAMG:  Solving for p, Initial residual = 0.000470708, Final residual = 1.80576e-06, No Iterations 3
time step continuity errors : sum local = 0.0693295, global = -0.00242655, cumulative = -0.157673
pressureControl: p max 2.14879e+07
pressureControl: p min -31473.1
ExecutionTime = 45.7 s  ClockTime = 46 s

writeObjects writeThermophysicalProperties write:
    writing object thermo:alpha
    writing object thermo:mu

Time = 18

Courant Number mean: 22542.8 max: 9.14588e+07
smoothSolver:  Solving for Ux, Initial residual = 0.00962098, Final residual = 8.55675e-05, No Iterations 15
smoothSolver:  Solving for Uy, Initial residual = 0.000271196, Final residual = 2.28468e-06, No Iterations 15
smoothSolver:  Solving for Uz, Initial residual = 0.0157115, Final residual = 0.000133857, No Iterations 16
smoothSolver:  Solving for h, Initial residual = 0.00853734, Final residual = 8.05593e-05, No Iterations 44
GAMG:  Solving for p, Initial residual = 0.0155134, Final residual = 3.8754e-05, No Iterations 2
GAMG:  Solving for p, Initial residual = 0.00246164, Final residual = 9.92168e-06, No Iterations 2
GAMG:  Solving for p, Initial residual = 0.000437371, Final residual = 1.69074e-06, No Iterations 3
time step continuity errors : sum local = 0.0659577, global = -0.00223122, cumulative = -0.159905
pressureControl: p max 2.09267e+07
pressureControl: p min -11268.3
ExecutionTime = 48.44 s  ClockTime = 49 s

Time = 19

Courant Number mean: 22469.5 max: 7.93103e+07
smoothSolver:  Solving for Ux, Initial residual = 0.00959454, Final residual = 8.82467e-05, No Iterations 15
smoothSolver:  Solving for Uy, Initial residual = 0.000255356, Final residual = 2.23933e-06, No Iterations 15
smoothSolver:  Solving for Uz, Initial residual = 0.0170268, Final residual = 0.000152091, No Iterations 16
smoothSolver:  Solving for h, Initial residual = 0.00799483, Final residual = 7.648e-05, No Iterations 44
GAMG:  Solving for p, Initial residual = 0.0146975, Final residual = 3.59627e-05, No Iterations 2
GAMG:  Solving for p, Initial residual = 0.00233412, Final residual = 8.9274e-06, No Iterations 2
GAMG:  Solving for p, Initial residual = 0.000408022, Final residual = 1.62503e-06, No Iterations 3
time step continuity errors : sum local = 0.0638208, global = -0.00194894, cumulative = -0.161853
pressureControl: p max 2.07048e+07
pressureControl: p min 7544.86
ExecutionTime = 51.17 s  ClockTime = 51 s

Time = 20

Courant Number mean: 22404.3 max: 6.78701e+07
smoothSolver:  Solving for Ux, Initial residual = 0.00953983, Final residual = 9.00512e-05, No Iterations 15
smoothSolver:  Solving for Uy, Initial residual = 0.000242474, Final residual = 2.1983e-06, No Iterations 15
smoothSolver:  Solving for Uz, Initial residual = 0.0159069, Final residual = 0.000148109, No Iterations 16
smoothSolver:  Solving for h, Initial residual = 0.00752742, Final residual = 7.27009e-05, No Iterations 44
GAMG:  Solving for p, Initial residual = 0.0140761, Final residual = 3.40959e-05, No Iterations 2
GAMG:  Solving for p, Initial residual = 0.00224465, Final residual = 8.26192e-06, No Iterations 2
GAMG:  Solving for p, Initial residual = 0.000390183, Final residual = 1.57575e-06, No Iterations 3
time step continuity errors : sum local = 0.0619922, global = -0.00157498, cumulative = -0.163428
pressureControl: p max 2.07887e+07
pressureControl: p min 22676.4
ExecutionTime = 53.89 s  ClockTime = 54 s

Time = 21

Courant Number mean: 22346.8 max: 5.86543e+07
smoothSolver:  Solving for Ux, Initial residual = 0.0093905, Final residual = 9.06606e-05, No Iterations 15
smoothSolver:  Solving for Uy, Initial residual = 0.000231673, Final residual = 2.16266e-06, No Iterations 15
smoothSolver:  Solving for Uz, Initial residual = 0.0142456, Final residual = 0.000137237, No Iterations 16
smoothSolver:  Solving for h, Initial residual = 0.00711287, Final residual = 6.92011e-05, No Iterations 44
GAMG:  Solving for p, Initial residual = 0.0136104, Final residual = 3.30873e-05, No Iterations 2
GAMG:  Solving for p, Initial residual = 0.00217397, Final residual = 7.60768e-06, No Iterations 2
GAMG:  Solving for p, Initial residual = 0.000372769, Final residual = 1.53156e-06, No Iterations 3
time step continuity errors : sum local = 0.0603461, global = -0.00131026, cumulative = -0.164739
pressureControl: p max 2.08093e+07
pressureControl: p min 35896.1
ExecutionTime = 56.62 s  ClockTime = 57 s

Time = 22

Courant Number mean: 22295 max: 5.198e+07
smoothSolver:  Solving for Ux, Initial residual = 0.00926046, Final residual = 9.12851e-05, No Iterations 15
smoothSolver:  Solving for Uy, Initial residual = 0.000222327, Final residual = 2.13021e-06, No Iterations 15
smoothSolver:  Solving for Uz, Initial residual = 0.0129509, Final residual = 0.000128056, No Iterations 16
smoothSolver:  Solving for h, Initial residual = 0.00673712, Final residual = 6.59536e-05, No Iterations 44
GAMG:  Solving for p, Initial residual = 0.0132658, Final residual = 3.2433e-05, No Iterations 2
GAMG:  Solving for p, Initial residual = 0.00212015, Final residual = 7.02608e-06, No Iterations 2
GAMG:  Solving for p, Initial residual = 0.000362462, Final residual = 1.52138e-06, No Iterations 3
time step continuity errors : sum local = 0.0601025, global = -0.00097753, cumulative = -0.165716
pressureControl: p max 2.08011e+07
pressureControl: p min 46502.9
ExecutionTime = 59.35 s  ClockTime = 59 s

Time = 23

Courant Number mean: 22249 max: 4.71805e+07
smoothSolver:  Solving for Ux, Initial residual = 0.00904955, Final residual = 7.26584e-05, No Iterations 16
smoothSolver:  Solving for Uy, Initial residual = 0.000214032, Final residual = 2.09995e-06, No Iterations 15
smoothSolver:  Solving for Uz, Initial residual = 0.0119501, Final residual = 9.73101e-05, No Iterations 17
smoothSolver:  Solving for h, Initial residual = 0.00639696, Final residual = 6.29354e-05, No Iterations 44
GAMG:  Solving for p, Initial residual = 0.0130126, Final residual = 3.24529e-05, No Iterations 2
GAMG:  Solving for p, Initial residual = 0.00207428, Final residual = 6.63203e-06, No Iterations 2
GAMG:  Solving for p, Initial residual = 0.000351272, Final residual = 1.46686e-06, No Iterations 3
time step continuity errors : sum local = 0.0581491, global = -0.000759168, cumulative = -0.166475
pressureControl: p max 2.08106e+07
pressureControl: p min -616992
ExecutionTime = 62.09 s  ClockTime = 62 s

Time = 24

Courant Number mean: 22206.8 max: 4.65352e+07
smoothSolver:  Solving for Ux, Initial residual = 0.00891755, Final residual = 7.2752e-05, No Iterations 16
smoothSolver:  Solving for Uy, Initial residual = 0.000206614, Final residual = 1.6568e-06, No Iterations 16
smoothSolver:  Solving for Uz, Initial residual = 0.0112077, Final residual = 9.27955e-05, No Iterations 17
smoothSolver:  Solving for h, Initial residual = 0.00608009, Final residual = 6.01263e-05, No Iterations 44
GAMG:  Solving for p, Initial residual = 0.0128239, Final residual = 3.21123e-05, No Iterations 2
GAMG:  Solving for p, Initial residual = 0.00203234, Final residual = 6.25244e-06, No Iterations 2
GAMG:  Solving for p, Initial residual = 0.000348032, Final residual = 1.44609e-06, No Iterations 3
time step continuity errors : sum local = 0.0575499, global = -0.000593359, cumulative = -0.167069
pressureControl: p max 2.07891e+07
pressureControl: p min -1.08182e+06
ExecutionTime = 64.84 s  ClockTime = 65 s

Time = 25

Courant Number mean: 22169.1 max: 4.64977e+07
smoothSolver:  Solving for Ux, Initial residual = 0.0086582, Final residual = 7.18367e-05, No Iterations 16
smoothSolver:  Solving for Uy, Initial residual = 0.000199567, Final residual = 1.62885e-06, No Iterations 16
smoothSolver:  Solving for Uz, Initial residual = 0.0105673, Final residual = 8.90697e-05, No Iterations 17
smoothSolver:  Solving for h, Initial residual = 0.00579112, Final residual = 5.75023e-05, No Iterations 44
GAMG:  Solving for p, Initial residual = 0.0126797, Final residual = 3.21207e-05, No Iterations 2
GAMG:  Solving for p, Initial residual = 0.0019949, Final residual = 5.99356e-06, No Iterations 2
GAMG:  Solving for p, Initial residual = 0.000338019, Final residual = 1.37691e-06, No Iterations 3
time step continuity errors : sum local = 0.0550002, global = -0.000493393, cumulative = -0.167562
pressureControl: p max 2.07847e+07
pressureControl: p min -1.08223e+06
ExecutionTime = 67.59 s  ClockTime = 68 s

Time = 26

Courant Number mean: 22134.4 max: 4.64557e+07
smoothSolver:  Solving for Ux, Initial residual = 0.00855098, Final residual = 7.20631e-05, No Iterations 16
smoothSolver:  Solving for Uy, Initial residual = 0.000193371, Final residual = 1.60389e-06, No Iterations 16
smoothSolver:  Solving for Uz, Initial residual = 0.0101076, Final residual = 8.63862e-05, No Iterations 17
smoothSolver:  Solving for h, Initial residual = 0.00551714, Final residual = 5.50536e-05, No Iterations 44
GAMG:  Solving for p, Initial residual = 0.0125557, Final residual = 3.14616e-05, No Iterations 2
GAMG:  Solving for p, Initial residual = 0.00195386, Final residual = 5.56067e-06, No Iterations 2
GAMG:  Solving for p, Initial residual = 0.000333563, Final residual = 1.40173e-06, No Iterations 3
time step continuity errors : sum local = 0.0561844, global = -0.000350718, cumulative = -0.167913
pressureControl: p max 2.08036e+07
pressureControl: p min -1.11138e+06
ExecutionTime = 70.35 s  ClockTime = 70 s

Time = 27

Courant Number mean: 22103.5 max: 4.64112e+07
smoothSolver:  Solving for Ux, Initial residual = 0.00825221, Final residual = 7.04198e-05, No Iterations 16
smoothSolver:  Solving for Uy, Initial residual = 0.000187807, Final residual = 1.5778e-06, No Iterations 16
smoothSolver:  Solving for Uz, Initial residual = 0.00964374, Final residual = 8.32767e-05, No Iterations 17
smoothSolver:  Solving for h, Initial residual = 0.00526808, Final residual = 4.28492e-05, No Iterations 46
GAMG:  Solving for p, Initial residual = 0.012449, Final residual = 3.13693e-05, No Iterations 2
GAMG:  Solving for p, Initial residual = 0.00192336, Final residual = 5.50225e-06, No Iterations 2
GAMG:  Solving for p, Initial residual = 0.000326966, Final residual = 1.35185e-06, No Iterations 3
time step continuity errors : sum local = 0.0543371, global = -0.000316092, cumulative = -0.168229
pressureControl: p max 2.08454e+07
pressureControl: p min -1.09709e+06
ExecutionTime = 73.11 s  ClockTime = 73 s

Time = 28

Courant Number mean: 22075.3 max: 4.6363e+07
smoothSolver:  Solving for Ux, Initial residual = 0.00816401, Final residual = 7.03311e-05, No Iterations 16
smoothSolver:  Solving for Uy, Initial residual = 0.000182611, Final residual = 1.5494e-06, No Iterations 16
smoothSolver:  Solving for Uz, Initial residual = 0.00932268, Final residual = 8.1064e-05, No Iterations 17
smoothSolver:  Solving for h, Initial residual = 0.00502925, Final residual = 4.11014e-05, No Iterations 46
GAMG:  Solving for p, Initial residual = 0.012342, Final residual = 3.04926e-05, No Iterations 2
GAMG:  Solving for p, Initial residual = 0.00188573, Final residual = 5.12707e-06, No Iterations 2
GAMG:  Solving for p, Initial residual = 0.000324485, Final residual = 1.39843e-06, No Iterations 3
time step continuity errors : sum local = 0.0563412, global = -0.000252449, cumulative = -0.168481
pressureControl: p max 2.08415e+07
pressureControl: p min -1.10464e+06
ExecutionTime = 75.86 s  ClockTime = 76 s

Time = 29

Courant Number mean: 22050.3 max: 4.63127e+07
smoothSolver:  Solving for Ux, Initial residual = 0.00785522, Final residual = 6.82019e-05, No Iterations 16
smoothSolver:  Solving for Uy, Initial residual = 0.000177867, Final residual = 1.5175e-06, No Iterations 16
smoothSolver:  Solving for Uz, Initial residual = 0.00894469, Final residual = 7.80827e-05, No Iterations 17
smoothSolver:  Solving for h, Initial residual = 0.00481235, Final residual = 3.94392e-05, No Iterations 46
GAMG:  Solving for p, Initial residual = 0.012241, Final residual = 3.03148e-05, No Iterations 2
GAMG:  Solving for p, Initial residual = 0.00187161, Final residual = 5.23638e-06, No Iterations 2
GAMG:  Solving for p, Initial residual = 0.00032403, Final residual = 3.16176e-06, No Iterations 2
time step continuity errors : sum local = 0.127589, global = -0.000643395, cumulative = -0.169125
pressureControl: p max 2.08975e+07
pressureControl: p min -1.0522e+06
ExecutionTime = 78.57 s  ClockTime = 79 s

Time = 30

Courant Number mean: 22029.7 max: 4.62564e+07
smoothSolver:  Solving for Ux, Initial residual = 0.00780657, Final residual = 6.83765e-05, No Iterations 16
smoothSolver:  Solving for Uy, Initial residual = 0.00017355, Final residual = 1.48324e-06, No Iterations 16
smoothSolver:  Solving for Uz, Initial residual = 0.00870896, Final residual = 7.60028e-05, No Iterations 17
smoothSolver:  Solving for h, Initial residual = 0.00460293, Final residual = 3.78839e-05, No Iterations 46
GAMG:  Solving for p, Initial residual = 0.0121312, Final residual = 2.9172e-05, No Iterations 2
GAMG:  Solving for p, Initial residual = 0.00184793, Final residual = 5.59008e-06, No Iterations 2
GAMG:  Solving for p, Initial residual = 0.000341992, Final residual = 1.4689e-06, No Iterations 3
time step continuity errors : sum local = 0.0593407, global = -0.000107525, cumulative = -0.169232
pressureControl: p max 2.08352e+07
pressureControl: p min -1.12756e+06
ExecutionTime = 81.32 s  ClockTime = 81 s

Time = 31

Courant Number mean: 22008.3 max: 6.31681e+07
smoothSolver:  Solving for Ux, Initial residual = 0.00746751, Final residual = 6.60443e-05, No Iterations 16
smoothSolver:  Solving for Uy, Initial residual = 0.000169586, Final residual = 1.44849e-06, No Iterations 16
smoothSolver:  Solving for Uz, Initial residual = 0.00837425, Final residual = 7.28297e-05, No Iterations 17
smoothSolver:  Solving for h, Initial residual = 0.00441446, Final residual = 3.63949e-05, No Iterations 46
GAMG:  Solving for p, Initial residual = 0.0120265, Final residual = 2.94315e-05, No Iterations 2
GAMG:  Solving for p, Initial residual = 0.00185925, Final residual = 5.2198e-06, No Iterations 2
GAMG:  Solving for p, Initial residual = 0.000336104, Final residual = 2.85207e-06, No Iterations 2
time step continuity errors : sum local = 0.115263, global = -0.000463134, cumulative = -0.169695
pressureControl: p max 2.0941e+07
pressureControl: p min -1.0387e+06
ExecutionTime = 84.03 s  ClockTime = 84 s

Time = 32

Courant Number mean: 21992.5 max: 6.5646e+07
smoothSolver:  Solving for Ux, Initial residual = 0.00750087, Final residual = 6.71316e-05, No Iterations 16
smoothSolver:  Solving for Uy, Initial residual = 0.000165831, Final residual = 1.41476e-06, No Iterations 16
smoothSolver:  Solving for Uz, Initial residual = 0.00820649, Final residual = 7.10149e-05, No Iterations 17
smoothSolver:  Solving for h, Initial residual = 0.00423158, Final residual = 3.50032e-05, No Iterations 46
GAMG:  Solving for p, Initial residual = 0.0119091, Final residual = 2.87205e-05, No Iterations 2
GAMG:  Solving for p, Initial residual = 0.00185572, Final residual = 5.47864e-06, No Iterations 2
GAMG:  Solving for p, Initial residual = 0.00036097, Final residual = 1.51403e-06, No Iterations 3
time step continuity errors : sum local = 0.0611976, global = -3.02737e-05, cumulative = -0.169726
pressureControl: p max 2.08788e+07
pressureControl: p min -1.12327e+06
ExecutionTime = 86.8 s  ClockTime = 87 s

Time = 33

Courant Number mean: 21975.7 max: 9.8713e+07
smoothSolver:  Solving for Ux, Initial residual = 0.00708452, Final residual = 6.42812e-05, No Iterations 16
smoothSolver:  Solving for Uy, Initial residual = 0.000162475, Final residual = 1.38193e-06, No Iterations 16
smoothSolver:  Solving for Uz, Initial residual = 0.0078704, Final residual = 6.77456e-05, No Iterations 17
smoothSolver:  Solving for h, Initial residual = 0.00406781, Final residual = 3.36509e-05, No Iterations 46
GAMG:  Solving for p, Initial residual = 0.0117922, Final residual = 2.943e-05, No Iterations 2
GAMG:  Solving for p, Initial residual = 0.00189127, Final residual = 5.41389e-06, No Iterations 2
GAMG:  Solving for p, Initial residual = 0.000367465, Final residual = 2.69938e-06, No Iterations 2
time step continuity errors : sum local = 0.109042, global = -0.000260418, cumulative = -0.169986
pressureControl: p max 2.09557e+07
pressureControl: p min -1.03665e+06
ExecutionTime = 89.51 s  ClockTime = 90 s

Time = 34

Courant Number mean: 21964.1 max: 1.07067e+08
smoothSolver:  Solving for Ux, Initial residual = 0.00722544, Final residual = 6.66978e-05, No Iterations 16
smoothSolver:  Solving for Uy, Initial residual = 0.00015906, Final residual = 1.35259e-06, No Iterations 16
smoothSolver:  Solving for Uz, Initial residual = 0.00776405, Final residual = 6.68569e-05, No Iterations 17
smoothSolver:  Solving for h, Initial residual = 0.00390569, Final residual = 3.24009e-05, No Iterations 46
GAMG:  Solving for p, Initial residual = 0.0116607, Final residual = 2.89286e-05, No Iterations 2
GAMG:  Solving for p, Initial residual = 0.0019028, Final residual = 5.56709e-06, No Iterations 2
GAMG:  Solving for p, Initial residual = 0.000399129, Final residual = 3.55792e-06, No Iterations 2
time step continuity errors : sum local = 0.143639, global = 0.00025114, cumulative = -0.169735
pressureControl: p max 2.09069e+07
pressureControl: p min -1.08329e+06
ExecutionTime = 92.2 s  ClockTime = 92 s

writeObjects writeThermophysicalProperties write:
    writing object thermo:alpha
    writing object thermo:mu

Time = 35

Courant Number mean: 21953.5 max: 1.50422e+08
smoothSolver:  Solving for Ux, Initial residual = 0.00667532, Final residual = 6.28198e-05, No Iterations 16
smoothSolver:  Solving for Uy, Initial residual = 0.000155635, Final residual = 1.32645e-06, No Iterations 16
smoothSolver:  Solving for Uz, Initial residual = 0.00736896, Final residual = 6.37632e-05, No Iterations 17
smoothSolver:  Solving for h, Initial residual = 0.0037608, Final residual = 3.11606e-05, No Iterations 46
GAMG:  Solving for p, Initial residual = 0.011522, Final residual = 2.93524e-05, No Iterations 2
GAMG:  Solving for p, Initial residual = 0.00195437, Final residual = 5.60893e-06, No Iterations 2
GAMG:  Solving for p, Initial residual = 0.00042046, Final residual = 3.21641e-06, No Iterations 2
time step continuity errors : sum local = 0.129668, global = 0.000320951, cumulative = -0.169414
pressureControl: p max 2.09313e+07
pressureControl: p min -1.05208e+06
ExecutionTime = 94.9 s  ClockTime = 95 s

Time = 36

Courant Number mean: 21943.3 max: 1.62647e+08
smoothSolver:  Solving for Ux, Initial residual = 0.0069202, Final residual = 6.65663e-05, No Iterations 16
smoothSolver:  Solving for Uy, Initial residual = 0.000152051, Final residual = 1.3029e-06, No Iterations 16
smoothSolver:  Solving for Uz, Initial residual = 0.00729956, Final residual = 6.38367e-05, No Iterations 17
smoothSolver:  Solving for h, Initial residual = 0.0036165, Final residual = 3.0046e-05, No Iterations 46
GAMG:  Solving for p, Initial residual = 0.011375, Final residual = 2.91702e-05, No Iterations 2
GAMG:  Solving for p, Initial residual = 0.0019825, Final residual = 5.64263e-06, No Iterations 2
GAMG:  Solving for p, Initial residual = 0.00045181, Final residual = 3.43113e-06, No Iterations 2
time step continuity errors : sum local = 0.138162, global = 0.000461794, cumulative = -0.168952
pressureControl: p max 2.09129e+07
pressureControl: p min -1.07146e+06
ExecutionTime = 97.59 s  ClockTime = 98 s

Time = 37

Courant Number mean: 21934.3 max: 2.17847e+08
smoothSolver:  Solving for Ux, Initial residual = 0.0062185, Final residual = 6.12678e-05, No Iterations 16
smoothSolver:  Solving for Uy, Initial residual = 0.00014842, Final residual = 1.28218e-06, No Iterations 16
smoothSolver:  Solving for Uz, Initial residual = 0.00684776, Final residual = 6.07479e-05, No Iterations 17
smoothSolver:  Solving for h, Initial residual = 0.0034879, Final residual = 2.89108e-05, No Iterations 46
GAMG:  Solving for p, Initial residual = 0.0112274, Final residual = 2.9791e-05, No Iterations 2
GAMG:  Solving for p, Initial residual = 0.00206861, Final residual = 5.84907e-06, No Iterations 2
GAMG:  Solving for p, Initial residual = 0.000488197, Final residual = 3.05234e-06, No Iterations 2
time step continuity errors : sum local = 0.122645, global = 0.000422584, cumulative = -0.16853
pressureControl: p max 2.09437e+07
pressureControl: p min -1.03114e+06
ExecutionTime = 100.28 s  ClockTime = 100 s

Time = 38

Courant Number mean: 21926.2 max: 2.39643e+08
smoothSolver:  Solving for Ux, Initial residual = 0.0066132, Final residual = 5.36883e-05, No Iterations 17
smoothSolver:  Solving for Uy, Initial residual = 0.000144692, Final residual = 1.26336e-06, No Iterations 16
smoothSolver:  Solving for Uz, Initial residual = 0.00685908, Final residual = 6.20265e-05, No Iterations 17
smoothSolver:  Solving for h, Initial residual = 0.00335922, Final residual = 2.79188e-05, No Iterations 46
GAMG:  Solving for p, Initial residual = 0.0110881, Final residual = 2.98237e-05, No Iterations 2
GAMG:  Solving for p, Initial residual = 0.00214775, Final residual = 5.90433e-06, No Iterations 2
GAMG:  Solving for p, Initial residual = 0.000542708, Final residual = 3.32334e-06, No Iterations 2
time step continuity errors : sum local = 0.133312, global = 0.000554736, cumulative = -0.167975
pressureControl: p max 2.09235e+07
pressureControl: p min -1.05035e+06
ExecutionTime = 103 s  ClockTime = 103 s

Time = 39

Courant Number mean: 21919.3 max: 3.18461e+08
smoothSolver:  Solving for Ux, Initial residual = 0.00574002, Final residual = 4.77411e-05, No Iterations 17
smoothSolver:  Solving for Uy, Initial residual = 0.000141379, Final residual = 1.24895e-06, No Iterations 16
smoothSolver:  Solving for Uz, Initial residual = 0.00636893, Final residual = 5.89041e-05, No Iterations 17
smoothSolver:  Solving for h, Initial residual = 0.0032471, Final residual = 2.68698e-05, No Iterations 46
GAMG:  Solving for p, Initial residual = 0.010959, Final residual = 3.04734e-05, No Iterations 2
GAMG:  Solving for p, Initial residual = 0.00231531, Final residual = 6.20694e-06, No Iterations 2
GAMG:  Solving for p, Initial residual = 0.000611822, Final residual = 3.04982e-06, No Iterations 2
time step continuity errors : sum local = 0.122001, global = 0.000559642, cumulative = -0.167415
pressureControl: p max 2.09606e+07
pressureControl: p min -1.00591e+06
ExecutionTime = 105.71 s  ClockTime = 106 s

Time = 40

Courant Number mean: 21913.3 max: 3.6561e+08
smoothSolver:  Solving for Ux, Initial residual = 0.00640472, Final residual = 5.46727e-05, No Iterations 17
smoothSolver:  Solving for Uy, Initial residual = 0.000138179, Final residual = 1.23468e-06, No Iterations 16
smoothSolver:  Solving for Uz, Initial residual = 0.0065342, Final residual = 6.19661e-05, No Iterations 17
smoothSolver:  Solving for h, Initial residual = 0.0031331, Final residual = 2.59931e-05, No Iterations 46
GAMG:  Solving for p, Initial residual = 0.0108483, Final residual = 3.04685e-05, No Iterations 2
GAMG:  Solving for p, Initial residual = 0.00248274, Final residual = 6.30964e-06, No Iterations 2
GAMG:  Solving for p, Initial residual = 0.000702435, Final residual = 3.30201e-06, No Iterations 2
time step continuity errors : sum local = 0.131837, global = 0.000677295, cumulative = -0.166738
pressureControl: p max 2.09567e+07
pressureControl: p min -1.00444e+06
ExecutionTime = 108.41 s  ClockTime = 109 s

Time = 41

Courant Number mean: 21908.6 max: 4.83426e+08
smoothSolver:  Solving for Ux, Initial residual = 0.00526435, Final residual = 4.60823e-05, No Iterations 17
smoothSolver:  Solving for Uy, Initial residual = 0.000135414, Final residual = 1.22608e-06, No Iterations 16
smoothSolver:  Solving for Uz, Initial residual = 0.00596814, Final residual = 5.81643e-05, No Iterations 17
smoothSolver:  Solving for h, Initial residual = 0.00303564, Final residual = 2.50119e-05, No Iterations 46
GAMG:  Solving for p, Initial residual = 0.0107482, Final residual = 3.09976e-05, No Iterations 2
GAMG:  Solving for p, Initial residual = 0.00275849, Final residual = 6.53425e-06, No Iterations 2
GAMG:  Solving for p, Initial residual = 0.00081769, Final residual = 8.0429e-06, No Iterations 1
time step continuity errors : sum local = 0.320119, global = 0.000188407, cumulative = -0.16655
pressureControl: p max 2.09717e+07
pressureControl: p min -962016
ExecutionTime = 111.05 s  ClockTime = 111 s

Time = 42

Courant Number mean: 21904.6 max: 5.66489e+08
smoothSolver:  Solving for Ux, Initial residual = 0.00629427, Final residual = 5.64024e-05, No Iterations 17
smoothSolver:  Solving for Uy, Initial residual = 0.000132258, Final residual = 1.21608e-06, No Iterations 16
smoothSolver:  Solving for Uz, Initial residual = 0.00631436, Final residual = 5.09815e-05, No Iterations 18
smoothSolver:  Solving for h, Initial residual = 0.00293324, Final residual = 2.4247e-05, No Iterations 46
GAMG:  Solving for p, Initial residual = 0.0106676, Final residual = 2.94199e-05, No Iterations 2
GAMG:  Solving for p, Initial residual = 0.00301708, Final residual = 7.55427e-06, No Iterations 2
GAMG:  Solving for p, Initial residual = 0.000963522, Final residual = 8.32469e-06, No Iterations 1
time step continuity errors : sum local = 0.330733, global = 0.00165323, cumulative = -0.164896
pressureControl: p max 2.10468e+07
pressureControl: p min -910121
ExecutionTime = 113.71 s  ClockTime = 114 s

Time = 43

Courant Number mean: 21902.4 max: 7.29251e+08
smoothSolver:  Solving for Ux, Initial residual = 0.00478442, Final residual = 4.36409e-05, No Iterations 17
smoothSolver:  Solving for Uy, Initial residual = 0.000129906, Final residual = 1.22061e-06, No Iterations 16
smoothSolver:  Solving for Uz, Initial residual = 0.00560717, Final residual = 4.64019e-05, No Iterations 18
smoothSolver:  Solving for h, Initial residual = 0.00284848, Final residual = 2.32933e-05, No Iterations 46
GAMG:  Solving for p, Initial residual = 0.0105981, Final residual = 3.13548e-05, No Iterations 2
GAMG:  Solving for p, Initial residual = 0.00340867, Final residual = 7.94739e-06, No Iterations 2
GAMG:  Solving for p, Initial residual = 0.00113009, Final residual = 9.52054e-06, No Iterations 1
time step continuity errors : sum local = 0.377, global = 0.00207887, cumulative = -0.162818
pressureControl: p max 2.10813e+07
pressureControl: p min -873003
ExecutionTime = 116.35 s  ClockTime = 117 s

Time = 44

Courant Number mean: 21898.9 max: 8.51808e+08
smoothSolver:  Solving for Ux, Initial residual = 0.00627379, Final residual = 5.81403e-05, No Iterations 17
smoothSolver:  Solving for Uy, Initial residual = 0.000126676, Final residual = 1.21505e-06, No Iterations 16
smoothSolver:  Solving for Uz, Initial residual = 0.00615391, Final residual = 5.18827e-05, No Iterations 18
smoothSolver:  Solving for h, Initial residual = 0.00275964, Final residual = 2.26607e-05, No Iterations 46
GAMG:  Solving for p, Initial residual = 0.01057, Final residual = 3.22578e-05, No Iterations 2
GAMG:  Solving for p, Initial residual = 0.00379434, Final residual = 3.73235e-05, No Iterations 1
GAMG:  Solving for p, Initial residual = 0.00123579, Final residual = 7.33526e-06, No Iterations 2
time step continuity errors : sum local = 0.289942, global = 0.00217071, cumulative = -0.160647
pressureControl: p max 2.10742e+07
pressureControl: p min -880455
ExecutionTime = 118.99 s  ClockTime = 119 s

Time = 45

Courant Number mean: 21901.8 max: 1.07495e+09
smoothSolver:  Solving for Ux, Initial residual = 0.00423422, Final residual = 3.97609e-05, No Iterations 17
smoothSolver:  Solving for Uy, Initial residual = 0.000124241, Final residual = 1.21303e-06, No Iterations 16
smoothSolver:  Solving for Uz, Initial residual = 0.00517822, Final residual = 4.42191e-05, No Iterations 18
smoothSolver:  Solving for h, Initial residual = 0.00268988, Final residual = 2.67542e-05, No Iterations 44
GAMG:  Solving for p, Initial residual = 0.0105814, Final residual = 3.44745e-05, No Iterations 2
GAMG:  Solving for p, Initial residual = 0.00440342, Final residual = 4.02342e-05, No Iterations 1
GAMG:  Solving for p, Initial residual = 0.00149105, Final residual = 6.4065e-06, No Iterations 2
time step continuity errors : sum local = 0.252332, global = 0.00239837, cumulative = -0.158248
pressureControl: p max 2.10274e+07
pressureControl: p min -884513
ExecutionTime = 121.62 s  ClockTime = 122 s

Time = 46

Courant Number mean: 21907.6 max: 1.27354e+09
smoothSolver:  Solving for Ux, Initial residual = 0.00628916, Final residual = 5.96634e-05, No Iterations 17
smoothSolver:  Solving for Uy, Initial residual = 0.000121128, Final residual = 1.19736e-06, No Iterations 16
smoothSolver:  Solving for Uz, Initial residual = 0.00601197, Final residual = 5.18237e-05, No Iterations 18
smoothSolver:  Solving for h, Initial residual = 0.00261979, Final residual = 2.60881e-05, No Iterations 44
GAMG:  Solving for p, Initial residual = 0.0106645, Final residual = 3.52791e-05, No Iterations 2
GAMG:  Solving for p, Initial residual = 0.00504218, Final residual = 4.33176e-05, No Iterations 1
GAMG:  Solving for p, Initial residual = 0.00176236, Final residual = 6.94572e-06, No Iterations 2
time step continuity errors : sum local = 0.273191, global = 0.00314916, cumulative = -0.155099
pressureControl: p max 2.0995e+07
pressureControl: p min -899624
ExecutionTime = 124.25 s  ClockTime = 124 s

Time = 47

Courant Number mean: 21924.3 max: 1.60749e+09
smoothSolver:  Solving for Ux, Initial residual = 0.00360628, Final residual = 3.45194e-05, No Iterations 17
smoothSolver:  Solving for Uy, Initial residual = 0.000118975, Final residual = 1.18895e-06, No Iterations 16
smoothSolver:  Solving for Uz, Initial residual = 0.00471369, Final residual = 4.09829e-05, No Iterations 18
smoothSolver:  Solving for h, Initial residual = 0.0025625, Final residual = 2.50178e-05, No Iterations 44
GAMG:  Solving for p, Initial residual = 0.0107727, Final residual = 3.73527e-05, No Iterations 2
GAMG:  Solving for p, Initial residual = 0.00593501, Final residual = 4.77196e-05, No Iterations 1
GAMG:  Solving for p, Initial residual = 0.00213169, Final residual = 7.1292e-06, No Iterations 2
time step continuity errors : sum local = 0.279355, global = 0.00381922, cumulative = -0.15128
pressureControl: p max 2.10026e+07
pressureControl: p min -880793
ExecutionTime = 126.89 s  ClockTime = 127 s

Time = 48

Courant Number mean: 21942.2 max: 1.90296e+09
smoothSolver:  Solving for Ux, Initial residual = 0.00628965, Final residual = 6.05768e-05, No Iterations 17
smoothSolver:  Solving for Uy, Initial residual = 0.000116143, Final residual = 9.34043e-07, No Iterations 17
smoothSolver:  Solving for Uz, Initial residual = 0.00596773, Final residual = 5.2218e-05, No Iterations 18
smoothSolver:  Solving for h, Initial residual = 0.00251166, Final residual = 2.44827e-05, No Iterations 44
GAMG:  Solving for p, Initial residual = 0.0109873, Final residual = 3.829e-05, No Iterations 2
GAMG:  Solving for p, Initial residual = 0.00683342, Final residual = 5.20431e-05, No Iterations 1
GAMG:  Solving for p, Initial residual = 0.00251098, Final residual = 7.89943e-06, No Iterations 2
time step continuity errors : sum local = 0.309308, global = 0.00431556, cumulative = -0.146965
pressureControl: p max 2.10024e+07
pressureControl: p min -874337
ExecutionTime = 129.54 s  ClockTime = 130 s

Time = 49

Courant Number mean: 21972.1 max: 2.35684e+09
smoothSolver:  Solving for Ux, Initial residual = 0.00295323, Final residual = 2.86211e-05, No Iterations 17
smoothSolver:  Solving for Uy, Initial residual = 0.000114364, Final residual = 9.26302e-07, No Iterations 17
smoothSolver:  Solving for Uz, Initial residual = 0.00422033, Final residual = 3.71714e-05, No Iterations 18
smoothSolver:  Solving for h, Initial residual = 0.00246487, Final residual = 2.34158e-05, No Iterations 44
GAMG:  Solving for p, Initial residual = 0.0112039, Final residual = 4.07876e-05, No Iterations 2
GAMG:  Solving for p, Initial residual = 0.00798114, Final residual = 5.79075e-05, No Iterations 1
GAMG:  Solving for p, Initial residual = 0.00298862, Final residual = 8.22441e-06, No Iterations 2
time step continuity errors : sum local = 0.320752, global = 0.00462587, cumulative = -0.142339
pressureControl: p max 2.10207e+07
pressureControl: p min -847785
ExecutionTime = 132.18 s  ClockTime = 132 s

Time = 50

Courant Number mean: 22000.1 max: 2.73448e+09
smoothSolver:  Solving for Ux, Initial residual = 0.00591816, Final residual = 5.75545e-05, No Iterations 17
smoothSolver:  Solving for Uy, Initial residual = 0.000111726, Final residual = 9.1147e-07, No Iterations 17
smoothSolver:  Solving for Uz, Initial residual = 0.00597779, Final residual = 5.2857e-05, No Iterations 18
smoothSolver:  Solving for h, Initial residual = 0.00242967, Final residual = 2.30114e-05, No Iterations 44
GAMG:  Solving for p, Initial residual = 0.011551, Final residual = 4.19831e-05, No Iterations 2
GAMG:  Solving for p, Initial residual = 0.00909781, Final residual = 6.30875e-05, No Iterations 1
GAMG:  Solving for p, Initial residual = 0.00346791, Final residual = 3.27678e-05, No Iterations 1
time step continuity errors : sum local = 1.27804, global = 0.00468645, cumulative = -0.137652
pressureControl: p max 2.09764e+07
pressureControl: p min -881437
ExecutionTime = 134.76 s  ClockTime = 135 s

Time = 51

Courant Number mean: 22045.8 max: 3.30403e+09
smoothSolver:  Solving for Ux, Initial residual = 0.00240233, Final residual = 2.33753e-05, No Iterations 17
smoothSolver:  Solving for Uy, Initial residual = 0.000110187, Final residual = 9.03529e-07, No Iterations 17
smoothSolver:  Solving for Uz, Initial residual = 0.00369606, Final residual = 3.27179e-05, No Iterations 18
smoothSolver:  Solving for h, Initial residual = 0.0023849, Final residual = 2.19094e-05, No Iterations 44
GAMG:  Solving for p, Initial residual = 0.0118213, Final residual = 4.41396e-05, No Iterations 2
GAMG:  Solving for p, Initial residual = 0.0103546, Final residual = 6.809e-05, No Iterations 1
GAMG:  Solving for p, Initial residual = 0.00401067, Final residual = 3.61041e-05, No Iterations 1
time step continuity errors : sum local = 1.40188, global = 0.00542056, cumulative = -0.132232
pressureControl: p max 2.10037e+07
pressureControl: p min -848921
ExecutionTime = 137.35 s  ClockTime = 138 s

writeObjects writeThermophysicalProperties write:
    writing object thermo:alpha
    writing object thermo:mu

Time = 52

Courant Number mean: 22081.6 max: 3.70638e+09
smoothSolver:  Solving for Ux, Initial residual = 0.00508691, Final residual = 4.9612e-05, No Iterations 17
smoothSolver:  Solving for Uy, Initial residual = 0.000107723, Final residual = 8.88809e-07, No Iterations 17
smoothSolver:  Solving for Uz, Initial residual = 0.00594518, Final residual = 5.27153e-05, No Iterations 18
smoothSolver:  Solving for h, Initial residual = 0.00235796, Final residual = 2.17677e-05, No Iterations 44
GAMG:  Solving for p, Initial residual = 0.0122494, Final residual = 4.56194e-05, No Iterations 2
GAMG:  Solving for p, Initial residual = 0.0115832, Final residual = 7.50403e-05, No Iterations 1
GAMG:  Solving for p, Initial residual = 0.00455671, Final residual = 4.10757e-05, No Iterations 1
time step continuity errors : sum local = 1.59647, global = 0.00697595, cumulative = -0.125256
pressureControl: p max 2.10298e+07
pressureControl: p min -816794
ExecutionTime = 139.93 s  ClockTime = 140 s

Time = 53

Courant Number mean: 22135.1 max: 4.35597e+09
smoothSolver:  Solving for Ux, Initial residual = 0.00196169, Final residual = 1.92075e-05, No Iterations 17
smoothSolver:  Solving for Uy, Initial residual = 0.000106855, Final residual = 8.8763e-07, No Iterations 17
smoothSolver:  Solving for Uz, Initial residual = 0.0032097, Final residual = 2.85427e-05, No Iterations 18
smoothSolver:  Solving for h, Initial residual = 0.00232427, Final residual = 2.05312e-05, No Iterations 44
GAMG:  Solving for p, Initial residual = 0.0125684, Final residual = 4.87188e-05, No Iterations 2
GAMG:  Solving for p, Initial residual = 0.0130052, Final residual = 8.19396e-05, No Iterations 1
GAMG:  Solving for p, Initial residual = 0.00516753, Final residual = 4.61893e-05, No Iterations 1
time step continuity errors : sum local = 1.7859, global = 0.00845693, cumulative = -0.116799
pressureControl: p max 2.10643e+07
pressureControl: p min -774748
ExecutionTime = 142.51 s  ClockTime = 143 s

Time = 54

Courant Number mean: 22172.1 max: 4.7361e+09
smoothSolver:  Solving for Ux, Initial residual = 0.00397267, Final residual = 3.89889e-05, No Iterations 17
smoothSolver:  Solving for Uy, Initial residual = 0.000104449, Final residual = 8.72528e-07, No Iterations 17
smoothSolver:  Solving for Uz, Initial residual = 0.00577515, Final residual = 5.14838e-05, No Iterations 18
smoothSolver:  Solving for h, Initial residual = 0.00230872, Final residual = 2.05355e-05, No Iterations 44
GAMG:  Solving for p, Initial residual = 0.0131174, Final residual = 4.94099e-05, No Iterations 2
GAMG:  Solving for p, Initial residual = 0.0142949, Final residual = 8.67186e-05, No Iterations 1
GAMG:  Solving for p, Initial residual = 0.00575699, Final residual = 4.90515e-05, No Iterations 1
time step continuity errors : sum local = 1.90124, global = 0.0100639, cumulative = -0.106735
pressureControl: p max 2.10911e+07
pressureControl: p min -739709
ExecutionTime = 145.09 s  ClockTime = 145 s

Time = 55

Courant Number mean: 22232.2 max: 5.48041e+09
smoothSolver:  Solving for Ux, Initial residual = 0.00161598, Final residual = 1.58755e-05, No Iterations 17
smoothSolver:  Solving for Uy, Initial residual = 0.000103947, Final residual = 8.72847e-07, No Iterations 17
smoothSolver:  Solving for Uz, Initial residual = 0.00278365, Final residual = 2.48458e-05, No Iterations 18
smoothSolver:  Solving for h, Initial residual = 0.00227838, Final residual = 1.92849e-05, No Iterations 44
GAMG:  Solving for p, Initial residual = 0.0133965, Final residual = 5.16794e-05, No Iterations 2
GAMG:  Solving for p, Initial residual = 0.0156079, Final residual = 9.29122e-05, No Iterations 1
GAMG:  Solving for p, Initial residual = 0.00632979, Final residual = 5.39079e-05, No Iterations 1
time step continuity errors : sum local = 2.07534, global = 0.0108714, cumulative = -0.0958634
pressureControl: p max 2.11154e+07
pressureControl: p min -707128
ExecutionTime = 147.66 s  ClockTime = 148 s

Time = 56

Courant Number mean: 22259.6 max: 5.69185e+09
smoothSolver:  Solving for Ux, Initial residual = 0.00303896, Final residual = 2.97916e-05, No Iterations 17
smoothSolver:  Solving for Uy, Initial residual = 0.000101657, Final residual = 8.56373e-07, No Iterations 17
smoothSolver:  Solving for Uz, Initial residual = 0.00536841, Final residual = 4.7866e-05, No Iterations 18
smoothSolver:  Solving for h, Initial residual = 0.00226686, Final residual = 1.9412e-05, No Iterations 44
GAMG:  Solving for p, Initial residual = 0.0139532, Final residual = 5.29245e-05, No Iterations 2
GAMG:  Solving for p, Initial residual = 0.0165891, Final residual = 9.59443e-05, No Iterations 1
GAMG:  Solving for p, Initial residual = 0.00681945, Final residual = 5.57196e-05, No Iterations 1
time step continuity errors : sum local = 2.1539, global = 0.0116055, cumulative = -0.0842579
pressureControl: p max 2.11317e+07
pressureControl: p min -683237
ExecutionTime = 150.25 s  ClockTime = 150 s

Time = 57

Courant Number mean: 22317.4 max: 6.45215e+09
smoothSolver:  Solving for Ux, Initial residual = 0.00138617, Final residual = 1.35396e-05, No Iterations 17
smoothSolver:  Solving for Uy, Initial residual = 0.000101528, Final residual = 8.5748e-07, No Iterations 17
smoothSolver:  Solving for Uz, Initial residual = 0.00248695, Final residual = 2.21248e-05, No Iterations 18
smoothSolver:  Solving for h, Initial residual = 0.00223056, Final residual = 1.81641e-05, No Iterations 44
GAMG:  Solving for p, Initial residual = 0.0140837, Final residual = 5.37942e-05, No Iterations 2
GAMG:  Solving for p, Initial residual = 0.0176198, Final residual = 0.000100461, No Iterations 1
GAMG:  Solving for p, Initial residual = 0.00728225, Final residual = 5.98175e-05, No Iterations 1
time step continuity errors : sum local = 2.29149, global = 0.0126484, cumulative = -0.0716096
pressureControl: p max 2.11572e+07
pressureControl: p min -651298
ExecutionTime = 152.82 s  ClockTime = 153 s

Time = 58

Courant Number mean: 22326.7 max: 6.36705e+09
smoothSolver:  Solving for Ux, Initial residual = 0.0024822, Final residual = 2.41139e-05, No Iterations 17
smoothSolver:  Solving for Uy, Initial residual = 9.94085e-05, Final residual = 8.40626e-07, No Iterations 17
smoothSolver:  Solving for Uz, Initial residual = 0.0048121, Final residual = 4.26582e-05, No Iterations 18
smoothSolver:  Solving for h, Initial residual = 0.00221455, Final residual = 1.84094e-05, No Iterations 44
GAMG:  Solving for p, Initial residual = 0.0145962, Final residual = 5.57273e-05, No Iterations 2
GAMG:  Solving for p, Initial residual = 0.0182048, Final residual = 0.000101806, No Iterations 1
GAMG:  Solving for p, Initial residual = 0.00763305, Final residual = 6.09721e-05, No Iterations 1
time step continuity errors : sum local = 2.34997, global = 0.0132109, cumulative = -0.0583987
pressureControl: p max 2.11635e+07
pressureControl: p min -639122
ExecutionTime = 155.4 s  ClockTime = 156 s

Time = 59

Courant Number mean: 22382.8 max: 7.1724e+09
smoothSolver:  Solving for Ux, Initial residual = 0.00123562, Final residual = 1.19454e-05, No Iterations 17
smoothSolver:  Solving for Uy, Initial residual = 9.95113e-05, Final residual = 8.42394e-07, No Iterations 17
smoothSolver:  Solving for Uz, Initial residual = 0.00230038, Final residual = 2.03249e-05, No Iterations 18
smoothSolver:  Solving for h, Initial residual = 0.00217736, Final residual = 2.10886e-05, No Iterations 42
GAMG:  Solving for p, Initial residual = 0.0146231, Final residual = 5.54723e-05, No Iterations 2
GAMG:  Solving for p, Initial residual = 0.0192541, Final residual = 0.00010649, No Iterations 1
GAMG:  Solving for p, Initial residual = 0.00808938, Final residual = 6.5025e-05, No Iterations 1
time step continuity errors : sum local = 2.47801, global = 0.0138744, cumulative = -0.0445243
pressureControl: p max 2.1187e+07
pressureControl: p min -623988
ExecutionTime = 157.96 s  ClockTime = 158 s

Time = 60

Courant Number mean: 22378.9 max: 6.83277e+09
smoothSolver:  Solving for Ux, Initial residual = 0.00211301, Final residual = 2.03181e-05, No Iterations 17
smoothSolver:  Solving for Uy, Initial residual = 9.74688e-05, Final residual = 8.25265e-07, No Iterations 17
smoothSolver:  Solving for Uz, Initial residual = 0.00423086, Final residual = 3.72638e-05, No Iterations 18
smoothSolver:  Solving for h, Initial residual = 0.00216062, Final residual = 2.14825e-05, No Iterations 42
GAMG:  Solving for p, Initial residual = 0.015176, Final residual = 5.84703e-05, No Iterations 2
GAMG:  Solving for p, Initial residual = 0.019651, Final residual = 0.000108017, No Iterations 1
GAMG:  Solving for p, Initial residual = 0.00836139, Final residual = 6.62876e-05, No Iterations 1
time step continuity errors : sum local = 2.54785, global = 0.0147843, cumulative = -0.02974
pressureControl: p max 2.12036e+07
pressureControl: p min -613879
ExecutionTime = 160.51 s  ClockTime = 161 s

Time = 61

Courant Number mean: 22443.3 max: 7.77617e+09
smoothSolver:  Solving for Ux, Initial residual = 0.00111188, Final residual = 1.064e-05, No Iterations 17
smoothSolver:  Solving for Uy, Initial residual = 9.77314e-05, Final residual = 8.27439e-07, No Iterations 17
smoothSolver:  Solving for Uz, Initial residual = 0.00215612, Final residual = 1.89279e-05, No Iterations 18
smoothSolver:  Solving for h, Initial residual = 0.00213998, Final residual = 1.99433e-05, No Iterations 42
GAMG:  Solving for p, Initial residual = 0.0151522, Final residual = 5.71162e-05, No Iterations 2
GAMG:  Solving for p, Initial residual = 0.0209083, Final residual = 0.000114007, No Iterations 1
GAMG:  Solving for p, Initial residual = 0.00886762, Final residual = 7.08494e-05, No Iterations 1
time step continuity errors : sum local = 2.6864, global = 0.0162835, cumulative = -0.0134565
pressureControl: p max 2.12283e+07
pressureControl: p min -586528
ExecutionTime = 163.08 s  ClockTime = 163 s

Time = 62

Courant Number mean: 22434.2 max: 7.21786e+09
smoothSolver:  Solving for Ux, Initial residual = 0.00182558, Final residual = 1.73577e-05, No Iterations 17
smoothSolver:  Solving for Uy, Initial residual = 9.5774e-05, Final residual = 8.09242e-07, No Iterations 17
smoothSolver:  Solving for Uz, Initial residual = 0.00367909, Final residual = 3.21534e-05, No Iterations 18
smoothSolver:  Solving for h, Initial residual = 0.00211934, Final residual = 2.04864e-05, No Iterations 42
GAMG:  Solving for p, Initial residual = 0.0157778, Final residual = 6.10263e-05, No Iterations 2
GAMG:  Solving for p, Initial residual = 0.0210246, Final residual = 0.000114483, No Iterations 1
GAMG:  Solving for p, Initial residual = 0.00901572, Final residual = 7.21071e-05, No Iterations 1
time step continuity errors : sum local = 2.76498, global = 0.0173102, cumulative = 0.00385378
pressureControl: p max 2.12463e+07
pressureControl: p min -568369
ExecutionTime = 165.64 s  ClockTime = 166 s

Time = 63

Courant Number mean: 22507.5 max: 8.28234e+09
smoothSolver:  Solving for Ux, Initial residual = 0.00101303, Final residual = 9.56795e-06, No Iterations 17
smoothSolver:  Solving for Uy, Initial residual = 9.63192e-05, Final residual = 8.1188e-07, No Iterations 17
smoothSolver:  Solving for Uz, Initial residual = 0.00205208, Final residual = 1.78471e-05, No Iterations 18
smoothSolver:  Solving for h, Initial residual = 0.00212217, Final residual = 1.88823e-05, No Iterations 42
GAMG:  Solving for p, Initial residual = 0.0156599, Final residual = 5.82248e-05, No Iterations 2
GAMG:  Solving for p, Initial residual = 0.0223785, Final residual = 0.000121562, No Iterations 1
GAMG:  Solving for p, Initial residual = 0.00953337, Final residual = 7.68214e-05, No Iterations 1
time step continuity errors : sum local = 2.89901, global = 0.0193329, cumulative = 0.0231867
pressureControl: p max 2.1282e+07
pressureControl: p min -528885
ExecutionTime = 168.21 s  ClockTime = 168 s

Time = 64

Courant Number mean: 22490.2 max: 7.47573e+09
smoothSolver:  Solving for Ux, Initial residual = 0.0016327, Final residual = 1.52839e-05, No Iterations 17
smoothSolver:  Solving for Uy, Initial residual = 9.44716e-05, Final residual = 7.92879e-07, No Iterations 17
smoothSolver:  Solving for Uz, Initial residual = 0.00327422, Final residual = 2.82938e-05, No Iterations 18
smoothSolver:  Solving for h, Initial residual = 0.00209184, Final residual = 1.95897e-05, No Iterations 42
GAMG:  Solving for p, Initial residual = 0.0162954, Final residual = 6.28729e-05, No Iterations 2
GAMG:  Solving for p, Initial residual = 0.0220277, Final residual = 0.000120204, No Iterations 1
GAMG:  Solving for p, Initial residual = 0.00950028, Final residual = 7.75359e-05, No Iterations 1
time step continuity errors : sum local = 2.9662, global = 0.0201634, cumulative = 0.04335
pressureControl: p max 2.13033e+07
pressureControl: p min -502940
ExecutionTime = 170.77 s  ClockTime = 171 s

Time = 65

Courant Number mean: 22565.1 max: 8.6167e+09
smoothSolver:  Solving for Ux, Initial residual = 0.000948198, Final residual = 8.78941e-06, No Iterations 17
smoothSolver:  Solving for Uy, Initial residual = 9.53143e-05, Final residual = 7.9621e-07, No Iterations 17
smoothSolver:  Solving for Uz, Initial residual = 0.00199696, Final residual = 1.71268e-05, No Iterations 18
smoothSolver:  Solving for h, Initial residual = 0.00211281, Final residual = 1.78964e-05, No Iterations 42
GAMG:  Solving for p, Initial residual = 0.016096, Final residual = 5.89866e-05, No Iterations 2
GAMG:  Solving for p, Initial residual = 0.0234861, Final residual = 0.000127883, No Iterations 1
GAMG:  Solving for p, Initial residual = 0.0100373, Final residual = 8.20537e-05, No Iterations 1
time step continuity errors : sum local = 3.08478, global = 0.0198306, cumulative = 0.0631806
pressureControl: p max 2.13413e+07
pressureControl: p min -529880
ExecutionTime = 173.33 s  ClockTime = 174 s

Time = 66

Courant Number mean: 22538.1 max: 7.59465e+09
smoothSolver:  Solving for Ux, Initial residual = 0.00151289, Final residual = 1.38624e-05, No Iterations 17
smoothSolver:  Solving for Uy, Initial residual = 9.36146e-05, Final residual = 7.77049e-07, No Iterations 17
smoothSolver:  Solving for Uz, Initial residual = 0.0030184, Final residual = 2.56534e-05, No Iterations 18
smoothSolver:  Solving for h, Initial residual = 0.00206246, Final residual = 1.87598e-05, No Iterations 42
GAMG:  Solving for p, Initial residual = 0.0167372, Final residual = 6.43496e-05, No Iterations 2
GAMG:  Solving for p, Initial residual = 0.0227768, Final residual = 0.000124957, No Iterations 1
GAMG:  Solving for p, Initial residual = 0.00987861, Final residual = 8.22353e-05, No Iterations 1
time step continuity errors : sum local = 3.13753, global = 0.0192952, cumulative = 0.0824759
pressureControl: p max 2.13682e+07
pressureControl: p min -579643
ExecutionTime = 175.9 s  ClockTime = 176 s

Time = 67

Courant Number mean: 22612.7 max: 8.82555e+09
smoothSolver:  Solving for Ux, Initial residual = 0.000903989, Final residual = 8.18181e-06, No Iterations 17
smoothSolver:  Solving for Uy, Initial residual = 9.47507e-05, Final residual = 7.8116e-07, No Iterations 17
smoothSolver:  Solving for Uz, Initial residual = 0.00196482, Final residual = 1.65385e-05, No Iterations 18
smoothSolver:  Solving for h, Initial residual = 0.00208982, Final residual = 2.0883e-05, No Iterations 40
GAMG:  Solving for p, Initial residual = 0.0165132, Final residual = 5.99542e-05, No Iterations 2
GAMG:  Solving for p, Initial residual = 0.0244689, Final residual = 0.000133561, No Iterations 1
GAMG:  Solving for p, Initial residual = 0.0104791, Final residual = 8.67985e-05, No Iterations 1
time step continuity errors : sum local = 3.25434, global = 0.0197747, cumulative = 0.102251
pressureControl: p max 2.14119e+07
pressureControl: p min -589964
ExecutionTime = 178.45 s  ClockTime = 179 s

Time = 68

Courant Number mean: 22582.8 max: 7.66625e+09
smoothSolver:  Solving for Ux, Initial residual = 0.0014222, Final residual = 1.26779e-05, No Iterations 17
smoothSolver:  Solving for Uy, Initial residual = 9.3201e-05, Final residual = 7.61788e-07, No Iterations 17
smoothSolver:  Solving for Uz, Initial residual = 0.00284511, Final residual = 2.36583e-05, No Iterations 18
smoothSolver:  Solving for h, Initial residual = 0.00202653, Final residual = 1.79894e-05, No Iterations 42
GAMG:  Solving for p, Initial residual = 0.0171896, Final residual = 6.57442e-05, No Iterations 2
GAMG:  Solving for p, Initial residual = 0.0235326, Final residual = 0.000129455, No Iterations 1
GAMG:  Solving for p, Initial residual = 0.0102436, Final residual = 8.66974e-05, No Iterations 1
time step continuity errors : sum local = 3.29855, global = 0.0190501, cumulative = 0.121301
pressureControl: p max 2.14364e+07
pressureControl: p min -594066
ExecutionTime = 181.02 s  ClockTime = 181 s

writeObjects writeThermophysicalProperties write:
    writing object thermo:alpha
    writing object thermo:mu

Time = 69

Courant Number mean: 22657.6 max: 8.98553e+09
smoothSolver:  Solving for Ux, Initial residual = 0.000870868, Final residual = 7.64548e-06, No Iterations 17
smoothSolver:  Solving for Uy, Initial residual = 9.47203e-05, Final residual = 7.66641e-07, No Iterations 17
smoothSolver:  Solving for Uz, Initial residual = 0.00194417, Final residual = 1.59558e-05, No Iterations 18
smoothSolver:  Solving for h, Initial residual = 0.00204333, Final residual = 1.98349e-05, No Iterations 40
GAMG:  Solving for p, Initial residual = 0.016967, Final residual = 6.12051e-05, No Iterations 2
GAMG:  Solving for p, Initial residual = 0.0253966, Final residual = 0.000138339, No Iterations 1
GAMG:  Solving for p, Initial residual = 0.0108711, Final residual = 9.09011e-05, No Iterations 1
time step continuity errors : sum local = 3.40002, global = 0.0193304, cumulative = 0.140631
pressureControl: p max 2.14794e+07
pressureControl: p min -572958
ExecutionTime = 183.6 s  ClockTime = 184 s

Time = 70

Courant Number mean: 22627.2 max: 7.71342e+09
smoothSolver:  Solving for Ux, Initial residual = 0.00134977, Final residual = 1.16457e-05, No Iterations 17
smoothSolver:  Solving for Uy, Initial residual = 9.33141e-05, Final residual = 7.46871e-07, No Iterations 17
smoothSolver:  Solving for Uz, Initial residual = 0.00273024, Final residual = 2.20814e-05, No Iterations 18
smoothSolver:  Solving for h, Initial residual = 0.00197815, Final residual = 1.72439e-05, No Iterations 42
GAMG:  Solving for p, Initial residual = 0.0176712, Final residual = 6.72452e-05, No Iterations 2
GAMG:  Solving for p, Initial residual = 0.024258, Final residual = 0.000133366, No Iterations 1
GAMG:  Solving for p, Initial residual = 0.0105705, Final residual = 9.06763e-05, No Iterations 1
time step continuity errors : sum local = 3.44011, global = 0.0184216, cumulative = 0.159053
pressureControl: p max 2.15014e+07
pressureControl: p min -572720
ExecutionTime = 186.16 s  ClockTime = 186 s

Time = 71

Courant Number mean: 22701.1 max: 9.08422e+09
smoothSolver:  Solving for Ux, Initial residual = 0.000846665, Final residual = 7.17636e-06, No Iterations 17
smoothSolver:  Solving for Uy, Initial residual = 9.51287e-05, Final residual = 9.40861e-07, No Iterations 16
smoothSolver:  Solving for Uz, Initial residual = 0.00193508, Final residual = 1.907e-05, No Iterations 17
smoothSolver:  Solving for h, Initial residual = 0.00199901, Final residual = 1.88567e-05, No Iterations 40
GAMG:  Solving for p, Initial residual = 0.0174583, Final residual = 6.26196e-05, No Iterations 2
GAMG:  Solving for p, Initial residual = 0.026215, Final residual = 0.000142259, No Iterations 1
GAMG:  Solving for p, Initial residual = 0.0112036, Final residual = 9.4422e-05, No Iterations 1
time step continuity errors : sum local = 3.52342, global = 0.0183809, cumulative = 0.177434
pressureControl: p max 2.15465e+07
pressureControl: p min -554030
ExecutionTime = 188.69 s  ClockTime = 189 s

Time = 72

Courant Number mean: 22669.4 max: 7.7197e+09
smoothSolver:  Solving for Ux, Initial residual = 0.00129563, Final residual = 1.07743e-05, No Iterations 17
smoothSolver:  Solving for Uy, Initial residual = 9.38725e-05, Final residual = 9.18482e-07, No Iterations 16
smoothSolver:  Solving for Uz, Initial residual = 0.00266356, Final residual = 2.58417e-05, No Iterations 17
smoothSolver:  Solving for h, Initial residual = 0.00192701, Final residual = 1.65242e-05, No Iterations 42
GAMG:  Solving for p, Initial residual = 0.0181725, Final residual = 6.88443e-05, No Iterations 2
GAMG:  Solving for p, Initial residual = 0.0249083, Final residual = 0.000137062, No Iterations 1
GAMG:  Solving for p, Initial residual = 0.0108622, Final residual = 9.43306e-05, No Iterations 1
time step continuity errors : sum local = 3.56826, global = 0.0171739, cumulative = 0.194607
pressureControl: p max 2.15721e+07
pressureControl: p min -551301
ExecutionTime = 191.24 s  ClockTime = 191 s

Time = 73

Courant Number mean: 22742 max: 9.12727e+09
smoothSolver:  Solving for Ux, Initial residual = 0.00083212, Final residual = 6.7862e-06, No Iterations 17
smoothSolver:  Solving for Uy, Initial residual = 9.60478e-05, Final residual = 9.28772e-07, No Iterations 16
smoothSolver:  Solving for Uz, Initial residual = 0.0019406, Final residual = 1.85187e-05, No Iterations 17
smoothSolver:  Solving for h, Initial residual = 0.0019578, Final residual = 1.79416e-05, No Iterations 40
GAMG:  Solving for p, Initial residual = 0.0179526, Final residual = 6.40654e-05, No Iterations 2
GAMG:  Solving for p, Initial residual = 0.0268933, Final residual = 0.000145686, No Iterations 1
GAMG:  Solving for p, Initial residual = 0.0114833, Final residual = 9.75405e-05, No Iterations 1
time step continuity errors : sum local = 3.63088, global = 0.0177277, cumulative = 0.212335
pressureControl: p max 2.16247e+07
pressureControl: p min -520709
ExecutionTime = 193.78 s  ClockTime = 194 s

Time = 74

Courant Number mean: 22708.4 max: 7.69268e+09
smoothSolver:  Solving for Ux, Initial residual = 0.00126292, Final residual = 1.2529e-05, No Iterations 16
smoothSolver:  Solving for Uy, Initial residual = 9.48361e-05, Final residual = 9.0479e-07, No Iterations 16
smoothSolver:  Solving for Uz, Initial residual = 0.00264103, Final residual = 2.47261e-05, No Iterations 17
smoothSolver:  Solving for h, Initial residual = 0.00187571, Final residual = 1.58351e-05, No Iterations 42
GAMG:  Solving for p, Initial residual = 0.0186696, Final residual = 7.03198e-05, No Iterations 2
GAMG:  Solving for p, Initial residual = 0.0254437, Final residual = 0.000140365, No Iterations 1
GAMG:  Solving for p, Initial residual = 0.0111022, Final residual = 9.73804e-05, No Iterations 1
time step continuity errors : sum local = 3.6721, global = 0.0180017, cumulative = 0.230337
pressureControl: p max 2.16614e+07
pressureControl: p min -505499
ExecutionTime = 196.33 s  ClockTime = 197 s

Time = 75

Courant Number mean: 22778.4 max: 9.1241e+09
smoothSolver:  Solving for Ux, Initial residual = 0.000828013, Final residual = 8.05122e-06, No Iterations 16
smoothSolver:  Solving for Uy, Initial residual = 9.73414e-05, Final residual = 9.1502e-07, No Iterations 16
smoothSolver:  Solving for Uz, Initial residual = 0.0019625, Final residual = 1.79981e-05, No Iterations 17
smoothSolver:  Solving for h, Initial residual = 0.00191262, Final residual = 1.70848e-05, No Iterations 40
GAMG:  Solving for p, Initial residual = 0.0184451, Final residual = 6.57173e-05, No Iterations 2
GAMG:  Solving for p, Initial residual = 0.0274738, Final residual = 0.000148672, No Iterations 1
GAMG:  Solving for p, Initial residual = 0.011723, Final residual = 0.000100263, No Iterations 1
time step continuity errors : sum local = 3.72219, global = 0.0191652, cumulative = 0.249502
pressureControl: p max 2.17285e+07
pressureControl: p min -470241
ExecutionTime = 198.9 s  ClockTime = 199 s

Time = 76

Courant Number mean: 22744.1 max: 7.63867e+09
smoothSolver:  Solving for Ux, Initial residual = 0.00124439, Final residual = 1.18467e-05, No Iterations 16
smoothSolver:  Solving for Uy, Initial residual = 9.62105e-05, Final residual = 8.9106e-07, No Iterations 16
smoothSolver:  Solving for Uz, Initial residual = 0.00264597, Final residual = 2.37457e-05, No Iterations 17
smoothSolver:  Solving for h, Initial residual = 0.001831, Final residual = 1.5171e-05, No Iterations 42
GAMG:  Solving for p, Initial residual = 0.0191806, Final residual = 7.19123e-05, No Iterations 2
GAMG:  Solving for p, Initial residual = 0.0259702, Final residual = 0.000143486, No Iterations 1
GAMG:  Solving for p, Initial residual = 0.0113253, Final residual = 0.000100324, No Iterations 1
time step continuity errors : sum local = 3.77067, global = 0.0184795, cumulative = 0.267981
pressureControl: p max 2.17769e+07
pressureControl: p min -461171
ExecutionTime = 201.81 s  ClockTime = 202 s

Time = 77

Courant Number mean: 22813.3 max: 9.10585e+09
smoothSolver:  Solving for Ux, Initial residual = 0.000827966, Final residual = 7.7074e-06, No Iterations 16
smoothSolver:  Solving for Uy, Initial residual = 9.90638e-05, Final residual = 9.028e-07, No Iterations 16
smoothSolver:  Solving for Uz, Initial residual = 0.00198961, Final residual = 1.74518e-05, No Iterations 17
smoothSolver:  Solving for h, Initial residual = 0.00186905, Final residual = 1.62804e-05, No Iterations 40
GAMG:  Solving for p, Initial residual = 0.0189758, Final residual = 6.78016e-05, No Iterations 2
GAMG:  Solving for p, Initial residual = 0.0280815, Final residual = 0.000151529, No Iterations 1
GAMG:  Solving for p, Initial residual = 0.0119632, Final residual = 0.0001029, No Iterations 1
time step continuity errors : sum local = 3.80924, global = 0.0192982, cumulative = 0.28728
pressureControl: p max 2.18481e+07
pressureControl: p min -447318
ExecutionTime = 204.41 s  ClockTime = 205 s

Time = 78

Courant Number mean: 22780.7 max: 7.588e+09
smoothSolver:  Solving for Ux, Initial residual = 0.00122965, Final residual = 1.11708e-05, No Iterations 16
smoothSolver:  Solving for Uy, Initial residual = 9.79856e-05, Final residual = 8.77826e-07, No Iterations 16
smoothSolver:  Solving for Uz, Initial residual = 0.00266199, Final residual = 2.27697e-05, No Iterations 17
smoothSolver:  Solving for h, Initial residual = 0.00178899, Final residual = 1.77878e-05, No Iterations 40
GAMG:  Solving for p, Initial residual = 0.0197216, Final residual = 7.36494e-05, No Iterations 2
GAMG:  Solving for p, Initial residual = 0.0265398, Final residual = 0.000146804, No Iterations 1
GAMG:  Solving for p, Initial residual = 0.0115495, Final residual = 0.000103061, No Iterations 1
time step continuity errors : sum local = 3.86005, global = 0.0192768, cumulative = 0.306556
pressureControl: p max 2.19015e+07
pressureControl: p min -444720
ExecutionTime = 207.02 s  ClockTime = 207 s

Time = 79

[...]
ExecutionTime = 530.19 s  ClockTime = 531 s

Time = 212

Courant Number mean: 23297.1 max: 5.88399e+09
smoothSolver:  Solving for Ux, Initial residual = 0.00326656, Final residual = 2.7089e-05, No Iterations 9
smoothSolver:  Solving for Uy, Initial residual = 0.000244553, Final residual = 2.22772e-06, No Iterations 12
smoothSolver:  Solving for Uz, Initial residual = 0.00780864, Final residual = 6.30686e-05, No Iterations 9
smoothSolver:  Solving for h, Initial residual = 0.000359532, Final residual = 3.03512e-06, No Iterations 28
GAMG:  Solving for p, Initial residual = 0.024097, Final residual = 9.08894e-05, No Iterations 2
GAMG:  Solving for p, Initial residual = 0.0277365, Final residual = 0.000161219, No Iterations 1
GAMG:  Solving for p, Initial residual = 0.011348, Final residual = 0.000106285, No Iterations 1
time step continuity errors : sum local = 3.58904, global = -0.0240768, cumulative = -1.97359
pressureControl: p max 2.50575e+07
pressureControl: p min 92665
ExecutionTime = 532.45 s  ClockTime = 533 s

Time = 213

Courant Number mean: 23348.1 max: 7.54401e+09
smoothSolver:  Solving for Ux, Initial residual = 0.00229658, Final residual = 1.90227e-05, No Iterations 9
smoothSolver:  Solving for Uy, Initial residual = 0.000249886, Final residual = 2.27742e-06, No Iterations 12
smoothSolver:  Solving for Uz, Initial residual = 0.00609023, Final residual = 4.90999e-05, No Iterations 9
smoothSolver:  Solving for h, Initial residual = 0.00040392, Final residual = 3.28039e-06, No Iterations 24
GAMG:  Solving for p, Initial residual = 0.0237423, Final residual = 8.93458e-05, No Iterations 2
GAMG:  Solving for p, Initial residual = 0.0295012, Final residual = 0.00016403, No Iterations 1
GAMG:  Solving for p, Initial residual = 0.011784, Final residual = 0.000107765, No Iterations 1
time step continuity errors : sum local = 3.62315, global = -0.0222072, cumulative = -1.99579
pressureControl: p max 2.50954e+07
pressureControl: p min 92710.2
ExecutionTime = 534.69 s  ClockTime = 535 s

Time = 214

Courant Number mean: 23299.4 max: 5.88857e+09
smoothSolver:  Solving for Ux, Initial residual = 0.00325435, Final residual = 2.69383e-05, No Iterations 9
smoothSolver:  Solving for Uy, Initial residual = 0.000243836, Final residual = 2.22042e-06, No Iterations 12
smoothSolver:  Solving for Uz, Initial residual = 0.00777666, Final residual = 6.26157e-05, No Iterations 9
smoothSolver:  Solving for h, Initial residual = 0.000357626, Final residual = 3.57507e-06, No Iterations 26
GAMG:  Solving for p, Initial residual = 0.0240719, Final residual = 9.06929e-05, No Iterations 2
GAMG:  Solving for p, Initial residual = 0.0277356, Final residual = 0.000161134, No Iterations 1
GAMG:  Solving for p, Initial residual = 0.0113482, Final residual = 0.000106288, No Iterations 1
time step continuity errors : sum local = 3.59099, global = -0.0218159, cumulative = -2.01761
pressureControl: p max 2.50435e+07
pressureControl: p min 92666.7
ExecutionTime = 536.92 s  ClockTime = 537 s

Time = 215

Courant Number mean: 23350.7 max: 7.55139e+09
smoothSolver:  Solving for Ux, Initial residual = 0.00228951, Final residual = 1.89297e-05, No Iterations 9
smoothSolver:  Solving for Uy, Initial residual = 0.000249142, Final residual = 2.26986e-06, No Iterations 12
smoothSolver:  Solving for Uz, Initial residual = 0.00607479, Final residual = 4.88234e-05, No Iterations 9
smoothSolver:  Solving for h, Initial residual = 0.00040212, Final residual = 3.92392e-06, No Iterations 22
GAMG:  Solving for p, Initial residual = 0.0237184, Final residual = 8.91667e-05, No Iterations 2
GAMG:  Solving for p, Initial residual = 0.0295015, Final residual = 0.000163945, No Iterations 1
GAMG:  Solving for p, Initial residual = 0.0117844, Final residual = 0.000107628, No Iterations 1
time step continuity errors : sum local = 3.6204, global = -0.0231967, cumulative = -2.04081
pressureControl: p max 2.50706e+07
pressureControl: p min 92645.5
ExecutionTime = 539.14 s  ClockTime = 540 s

Time = 216

Courant Number mean: 23301.1 max: 5.89303e+09
smoothSolver:  Solving for Ux, Initial residual = 0.00324189, Final residual = 2.67758e-05, No Iterations 9
smoothSolver:  Solving for Uy, Initial residual = 0.000243144, Final residual = 2.2133e-06, No Iterations 12
smoothSolver:  Solving for Uz, Initial residual = 0.00774366, Final residual = 6.21297e-05, No Iterations 9
smoothSolver:  Solving for h, Initial residual = 0.000355752, Final residual = 3.46536e-06, No Iterations 26
GAMG:  Solving for p, Initial residual = 0.0240418, Final residual = 9.05565e-05, No Iterations 2
GAMG:  Solving for p, Initial residual = 0.0277319, Final residual = 0.000161138, No Iterations 1
GAMG:  Solving for p, Initial residual = 0.0113482, Final residual = 0.000106404, No Iterations 1
time step continuity errors : sum local = 3.59687, global = -0.0240523, cumulative = -2.06486
pressureControl: p max 2.50281e+07
pressureControl: p min 92672.8
ExecutionTime = 541.46 s  ClockTime = 542 s

Time = 217

Courant Number mean: 23352 max: 7.55864e+09
smoothSolver:  Solving for Ux, Initial residual = 0.00228209, Final residual = 1.88342e-05, No Iterations 9
smoothSolver:  Solving for Uy, Initial residual = 0.000248466, Final residual = 2.26315e-06, No Iterations 12
smoothSolver:  Solving for Uz, Initial residual = 0.0060586, Final residual = 4.85444e-05, No Iterations 9
smoothSolver:  Solving for h, Initial residual = 0.000400394, Final residual = 3.74367e-06, No Iterations 22
GAMG:  Solving for p, Initial residual = 0.0236909, Final residual = 8.90599e-05, No Iterations 2
GAMG:  Solving for p, Initial residual = 0.0294999, Final residual = 0.000163973, No Iterations 1
GAMG:  Solving for p, Initial residual = 0.0117848, Final residual = 0.0001079, No Iterations 1
time step continuity errors : sum local = 3.6315, global = -0.0228294, cumulative = -2.08769
pressureControl: p max 2.50652e+07
pressureControl: p min 92709.1
ExecutionTime = 543.7 s  ClockTime = 544 s

Time = 218

Courant Number mean: 23302.8 max: 5.89769e+09
smoothSolver:  Solving for Ux, Initial residual = 0.00322997, Final residual = 2.66434e-05, No Iterations 9
smoothSolver:  Solving for Uy, Initial residual = 0.000242472, Final residual = 2.20679e-06, No Iterations 12
smoothSolver:  Solving for Uz, Initial residual = 0.00771287, Final residual = 6.17297e-05, No Iterations 9
smoothSolver:  Solving for h, Initial residual = 0.000353919, Final residual = 3.3638e-06, No Iterations 26
GAMG:  Solving for p, Initial residual = 0.0240211, Final residual = 9.03781e-05, No Iterations 2
GAMG:  Solving for p, Initial residual = 0.0277334, Final residual = 0.000161098, No Iterations 1
GAMG:  Solving for p, Initial residual = 0.0113493, Final residual = 0.000106444, No Iterations 1
time step continuity errors : sum local = 3.59999, global = -0.0230551, cumulative = -2.11074
pressureControl: p max 2.50131e+07
pressureControl: p min 92664.5
ExecutionTime = 545.96 s  ClockTime = 546 s

Time = 219

Courant Number mean: 23354.2 max: 7.566e+09
smoothSolver:  Solving for Ux, Initial residual = 0.00227518, Final residual = 1.8748e-05, No Iterations 9
smoothSolver:  Solving for Uy, Initial residual = 0.00024778, Final residual = 2.25625e-06, No Iterations 12
smoothSolver:  Solving for Uz, Initial residual = 0.00604354, Final residual = 4.82915e-05, No Iterations 9
smoothSolver:  Solving for h, Initial residual = 0.00039871, Final residual = 3.58e-06, No Iterations 22
GAMG:  Solving for p, Initial residual = 0.0236707, Final residual = 8.89065e-05, No Iterations 2
GAMG:  Solving for p, Initial residual = 0.0295032, Final residual = 0.000163913, No Iterations 1
GAMG:  Solving for p, Initial residual = 0.0117864, Final residual = 0.000107897, No Iterations 1
time step continuity errors : sum local = 3.63313, global = -0.0212365, cumulative = -2.13198
pressureControl: p max 2.50515e+07
pressureControl: p min 92706.6
ExecutionTime = 548.2 s  ClockTime = 549 s

Time = 220

Courant Number mean: 23305 max: 5.90237e+09
smoothSolver:  Solving for Ux, Initial residual = 0.00321833, Final residual = 2.65038e-05, No Iterations 9
smoothSolver:  Solving for Uy, Initial residual = 0.000241791, Final residual = 2.19994e-06, No Iterations 12
smoothSolver:  Solving for Uz, Initial residual = 0.00768251, Final residual = 6.13146e-05, No Iterations 9
smoothSolver:  Solving for h, Initial residual = 0.000352098, Final residual = 3.27216e-06, No Iterations 26
GAMG:  Solving for p, Initial residual = 0.0240006, Final residual = 9.01974e-05, No Iterations 2
GAMG:  Solving for p, Initial residual = 0.0277351, Final residual = 0.000161033, No Iterations 1
GAMG:  Solving for p, Initial residual = 0.0113506, Final residual = 0.000106457, No Iterations 1
time step continuity errors : sum local = 3.60211, global = -0.0208546, cumulative = -2.15283
pressureControl: p max 2.5e+07
pressureControl: p min 92665.7
ExecutionTime = 550.49 s  ClockTime = 551 s

Time = 221

Courant Number mean: 23356.6 max: 7.57324e+09
smoothSolver:  Solving for Ux, Initial residual = 0.00226838, Final residual = 1.86613e-05, No Iterations 9
smoothSolver:  Solving for Uy, Initial residual = 0.000247072, Final residual = 2.24918e-06, No Iterations 12
smoothSolver:  Solving for Uz, Initial residual = 0.00602858, Final residual = 4.80371e-05, No Iterations 9
smoothSolver:  Solving for h, Initial residual = 0.000397017, Final residual = 3.42667e-06, No Iterations 22
GAMG:  Solving for p, Initial residual = 0.0236512, Final residual = 8.87438e-05, No Iterations 2
GAMG:  Solving for p, Initial residual = 0.0295064, Final residual = 0.000163857, No Iterations 1
GAMG:  Solving for p, Initial residual = 0.011788, Final residual = 0.00010779, No Iterations 1
time step continuity errors : sum local = 3.63117, global = -0.0222411, cumulative = -2.17508
pressureControl: p max 2.50279e+07
pressureControl: p min 92644.7
ExecutionTime = 552.72 s  ClockTime = 553 s

writeObjects writeThermophysicalProperties write:
    writing object thermo:alpha
    writing object thermo:mu

Time = 222

Courant Number mean: 23306.4 max: 5.90693e+09
smoothSolver:  Solving for Ux, Initial residual = 0.00320636, Final residual = 2.63521e-05, No Iterations 9
smoothSolver:  Solving for Uy, Initial residual = 0.000241135, Final residual = 2.19326e-06, No Iterations 12
smoothSolver:  Solving for Uz, Initial residual = 0.00765092, Final residual = 6.08646e-05, No Iterations 9
smoothSolver:  Solving for h, Initial residual = 0.000350263, Final residual = 3.18573e-06, No Iterations 26
GAMG:  Solving for p, Initial residual = 0.0239752, Final residual = 9.00842e-05, No Iterations 2
GAMG:  Solving for p, Initial residual = 0.0277336, Final residual = 0.000161055, No Iterations 1
GAMG:  Solving for p, Initial residual = 0.0113513, Final residual = 0.000106581, No Iterations 1
time step continuity errors : sum local = 3.60807, global = -0.0231534, cumulative = -2.19823
pressureControl: p max 2.49849e+07
pressureControl: p min 92671.1
ExecutionTime = 554.97 s  ClockTime = 555 s

Time = 223

Courant Number mean: 23357.6 max: 7.58033e+09
smoothSolver:  Solving for Ux, Initial residual = 0.00226136, Final residual = 1.85729e-05, No Iterations 9
smoothSolver:  Solving for Uy, Initial residual = 0.000246436, Final residual = 2.24293e-06, No Iterations 12
smoothSolver:  Solving for Uz, Initial residual = 0.00601345, Final residual = 4.77796e-05, No Iterations 9
smoothSolver:  Solving for h, Initial residual = 0.000395294, Final residual = 3.27702e-06, No Iterations 22
GAMG:  Solving for p, Initial residual = 0.0236276, Final residual = 8.86528e-05, No Iterations 2
GAMG:  Solving for p, Initial residual = 0.0295066, Final residual = 0.000163904, No Iterations 1
GAMG:  Solving for p, Initial residual = 0.011789, Final residual = 0.000108064, No Iterations 1
time step continuity errors : sum local = 3.64217, global = -0.0221213, cumulative = -2.22035
pressureControl: p max 2.5023e+07
pressureControl: p min 92705.6
ExecutionTime = 557.18 s  ClockTime = 558 s

Time = 224

Courant Number mean: 23307.9 max: 5.91143e+09
smoothSolver:  Solving for Ux, Initial residual = 0.00319515, Final residual = 2.62303e-05, No Iterations 9
smoothSolver:  Solving for Uy, Initial residual = 0.000240508, Final residual = 2.18722e-06, No Iterations 12
smoothSolver:  Solving for Uz, Initial residual = 0.00762202, Final residual = 6.05009e-05, No Iterations 9
smoothSolver:  Solving for h, Initial residual = 0.000348461, Final residual = 3.10427e-06, No Iterations 26
GAMG:  Solving for p, Initial residual = 0.0239579, Final residual = 8.99237e-05, No Iterations 2
GAMG:  Solving for p, Initial residual = 0.0277361, Final residual = 0.000161029, No Iterations 1
GAMG:  Solving for p, Initial residual = 0.0113529, Final residual = 0.000106633, No Iterations 1
time step continuity errors : sum local = 3.61142, global = -0.0224412, cumulative = -2.24279
pressureControl: p max 2.49707e+07
pressureControl: p min 92664
ExecutionTime = 559.42 s  ClockTime = 560 s

Time = 225

Courant Number mean: 23359.4 max: 7.58737e+09
smoothSolver:  Solving for Ux, Initial residual = 0.0022548, Final residual = 1.84931e-05, No Iterations 9
smoothSolver:  Solving for Uy, Initial residual = 0.000245792, Final residual = 2.23653e-06, No Iterations 12
smoothSolver:  Solving for Uz, Initial residual = 0.00599895, Final residual = 4.75467e-05, No Iterations 9
smoothSolver:  Solving for h, Initial residual = 0.000393615, Final residual = 3.14222e-06, No Iterations 22
GAMG:  Solving for p, Initial residual = 0.0236104, Final residual = 8.85199e-05, No Iterations 2
GAMG:  Solving for p, Initial residual = 0.0295108, Final residual = 0.000163871, No Iterations 1
GAMG:  Solving for p, Initial residual = 0.0117911, Final residual = 0.000108081, No Iterations 1
time step continuity errors : sum local = 3.64433, global = -0.0208337, cumulative = -2.26362
pressureControl: p max 2.50103e+07
pressureControl: p min 92703.7
ExecutionTime = 561.64 s  ClockTime = 562 s

Time = 226

Courant Number mean: 23309.7 max: 5.91591e+09
smoothSolver:  Solving for Ux, Initial residual = 0.00318415, Final residual = 2.61028e-05, No Iterations 9
smoothSolver:  Solving for Uy, Initial residual = 0.000239868, Final residual = 2.18086e-06, No Iterations 12
smoothSolver:  Solving for Uz, Initial residual = 0.00759305, Final residual = 6.01205e-05, No Iterations 9
smoothSolver:  Solving for h, Initial residual = 0.000346649, Final residual = 3.03136e-06, No Iterations 26
GAMG:  Solving for p, Initial residual = 0.0239405, Final residual = 8.97633e-05, No Iterations 2
GAMG:  Solving for p, Initial residual = 0.027739, Final residual = 0.000160987, No Iterations 1
GAMG:  Solving for p, Initial residual = 0.0113547, Final residual = 0.000106655, No Iterations 1
time step continuity errors : sum local = 3.6137, global = -0.0205978, cumulative = -2.28422
pressureControl: p max 2.49586e+07
pressureControl: p min 92664.8
ExecutionTime = 563.89 s  ClockTime = 564 s

Time = 227

Courant Number mean: 23361.6 max: 7.59433e+09
smoothSolver:  Solving for Ux, Initial residual = 0.00224847, Final residual = 1.84149e-05, No Iterations 9
smoothSolver:  Solving for Uy, Initial residual = 0.000245135, Final residual = 2.23e-06, No Iterations 12
smoothSolver:  Solving for Uz, Initial residual = 0.00598528, Final residual = 4.73186e-05, No Iterations 9
smoothSolver:  Solving for h, Initial residual = 0.000391959, Final residual = 3.81222e-06, No Iterations 20
GAMG:  Solving for p, Initial residual = 0.0235941, Final residual = 8.83718e-05, No Iterations 2
GAMG:  Solving for p, Initial residual = 0.0295155, Final residual = 0.00016383, No Iterations 1
GAMG:  Solving for p, Initial residual = 0.0117933, Final residual = 0.000107984, No Iterations 1
time step continuity errors : sum local = 3.64255, global = -0.0220838, cumulative = -2.30631
pressureControl: p max 2.49879e+07
pressureControl: p min 92644.2
ExecutionTime = 566.09 s  ClockTime = 567 s

Time = 228

Courant Number mean: 23310.9 max: 5.92036e+09
smoothSolver:  Solving for Ux, Initial residual = 0.00317306, Final residual = 2.59638e-05, No Iterations 9
smoothSolver:  Solving for Uy, Initial residual = 0.000239263, Final residual = 2.17472e-06, No Iterations 12
smoothSolver:  Solving for Uz, Initial residual = 0.00756377, Final residual = 5.97053e-05, No Iterations 9
smoothSolver:  Solving for h, Initial residual = 0.000344934, Final residual = 2.96278e-06, No Iterations 26
GAMG:  Solving for p, Initial residual = 0.0239183, Final residual = 8.96587e-05, No Iterations 2
GAMG:  Solving for p, Initial residual = 0.0277393, Final residual = 0.000161028, No Iterations 1
GAMG:  Solving for p, Initial residual = 0.0113562, Final residual = 0.000106785, No Iterations 1
time step continuity errors : sum local = 3.61972, global = -0.0230668, cumulative = -2.32937
pressureControl: p max 2.4945e+07
pressureControl: p min 92670.6
ExecutionTime = 568.36 s  ClockTime = 569 s

Time = 229

Courant Number mean: 23362.3 max: 7.60121e+09
smoothSolver:  Solving for Ux, Initial residual = 0.0022419, Final residual = 1.83338e-05, No Iterations 9
smoothSolver:  Solving for Uy, Initial residual = 0.000244552, Final residual = 2.22425e-06, No Iterations 12
smoothSolver:  Solving for Uz, Initial residual = 0.0059712, Final residual = 4.70844e-05, No Iterations 9
smoothSolver:  Solving for h, Initial residual = 0.00039038, Final residual = 3.6656e-06, No Iterations 20
GAMG:  Solving for p, Initial residual = 0.0235737, Final residual = 8.82966e-05, No Iterations 2
GAMG:  Solving for p, Initial residual = 0.0295173, Final residual = 0.000163893, No Iterations 1
GAMG:  Solving for p, Initial residual = 0.011795, Final residual = 0.000108255, No Iterations 1
time step continuity errors : sum local = 3.65332, global = -0.02211, cumulative = -2.35148
pressureControl: p max 2.4984e+07
pressureControl: p min 92704.6
ExecutionTime = 570.58 s  ClockTime = 571 s

Time = 230

Courant Number mean: 23312.2 max: 5.92475e+09
smoothSolver:  Solving for Ux, Initial residual = 0.00316258, Final residual = 2.58528e-05, No Iterations 9
smoothSolver:  Solving for Uy, Initial residual = 0.000238685, Final residual = 2.16915e-06, No Iterations 12
smoothSolver:  Solving for Uz, Initial residual = 0.00753647, Final residual = 5.93782e-05, No Iterations 9
smoothSolver:  Solving for h, Initial residual = 0.000343356, Final residual = 2.89988e-06, No Iterations 26
GAMG:  Solving for p, Initial residual = 0.0239042, Final residual = 8.95116e-05, No Iterations 2
GAMG:  Solving for p, Initial residual = 0.027743, Final residual = 0.00016102, No Iterations 1
GAMG:  Solving for p, Initial residual = 0.0113582, Final residual = 0.000106841, No Iterations 1
time step continuity errors : sum local = 3.62307, global = -0.0224429, cumulative = -2.37393
pressureControl: p max 2.4932e+07
pressureControl: p min 92664
ExecutionTime = 573.03 s  ClockTime = 573 s

Time = 231

Courant Number mean: 23364 max: 7.60784e+09
smoothSolver:  Solving for Ux, Initial residual = 0.00223577, Final residual = 1.82608e-05, No Iterations 9
smoothSolver:  Solving for Uy, Initial residual = 0.000243952, Final residual = 2.21835e-06, No Iterations 12
smoothSolver:  Solving for Uz, Initial residual = 0.00595778, Final residual = 4.68713e-05, No Iterations 9
smoothSolver:  Solving for h, Initial residual = 0.000388875, Final residual = 3.53402e-06, No Iterations 20
GAMG:  Solving for p, Initial residual = 0.0235593, Final residual = 8.81768e-05, No Iterations 2
GAMG:  Solving for p, Initial residual = 0.0295222, Final residual = 0.000163872, No Iterations 1
GAMG:  Solving for p, Initial residual = 0.0117973, Final residual = 0.000108272, No Iterations 1
time step continuity errors : sum local = 3.65531, global = -0.0208558, cumulative = -2.39478
pressureControl: p max 2.49726e+07
pressureControl: p min 92703
ExecutionTime = 575.33 s  ClockTime = 576 s

Time = 232

Courant Number mean: 23313.9 max: 5.92891e+09
