/*---------------------------------------------------------------------------*\
  =========                 |
  \\      /  F ield         | OpenFOAM: The Open Source CFD Toolbox
   \\    /   O peration     | Website:  https://openfoam.org
    \\  /    A nd           | Version:  7
     \\/     M anipulation  |
\*---------------------------------------------------------------------------*/
Build  : 7-3bcbaf946ae9
Exec   : polymSimpleFoam -parallel
Date   : Jun 01 2022
Time   : 19:14:36
Host   : "calculus"
PID    : 300846
I/O    : uncollated
Case   : /home/andres/OpenFOAM/andres-7/run/cases/pelletExtruder/MRF_SIMPLE
nProcs : 6
Slaves : 
5
(
"calculus.300847"
"calculus.300848"
"calculus.300849"
"calculus.300850"
"calculus.300851"
)

Pstream initialized with:
    floatTransfer      : 0
    nProcsSimpleSum    : 0
    commsType          : nonBlocking
    polling iterations : 0
sigFpe : Enabling floating point exception trapping (FOAM_SIGFPE).
fileModificationChecking : Monitoring run-time modified files using timeStampMaster (fileModificationSkew 10)
allowSystemOperations : Allowing user-supplied system call operations

// * * * * * * * * * * * * * * * * * * * * * * * * * * * * * * * * * * * * * //
Create time

Create mesh for time = 0


SIMPLE: Convergence criteria found
        p: tolerance 1e-06
        U: tolerance 1e-05
        h: tolerance 1e-07

Reading thermophysical properties

Selecting thermodynamics package 
{
    type            heRhoThermo;
    mixture         pureMixture;
    transport       polymerKWLF;
    thermo          hPolymer;
    equationOfState rhoPolymerEOS;
    specie          specie;
    energy          sensibleEnthalpy;
}

Reading field U

Reading/calculating face flux field phi

pressureControl
    pMax 2e+07
    pMin 99000

Creating turbulence model

Selecting turbulence model type laminar
Selecting laminar stress model generalizedNewtonian
Selecting generalized Newtonian model CrossPowerLaw
Creating MRF zone list from MRFProperties
    creating MRF zone: MRF1
--> FOAM Warning : 
    From function Foam::labelHashSet Foam::polyBoundaryMesh::patchSet(const Foam::UList<Foam::wordRe>&, bool, bool) const
    in file meshes/polyMesh/polyBoundaryMesh/polyBoundaryMesh.C at line 804
    Cannot find any patch or group names matching inlet,
Creating finite volume options from "constant/fvOptions"

Selecting finite volume options model type limitTemperature
    Source: limitT
    - selecting all cells
    - selected 405857 cell(s) with volume 1.04047e-06
Courant Number mean: 0 max: 0

Starting time loop



Time = 1

Courant Number mean: 0 max: 0
smoothSolver:  Solving for Ux, Initial residual = 1, Final residual = 0.00548969, No Iterations 3
smoothSolver:  Solving for Uy, Initial residual = 1, Final residual = 0.000315628, No Iterations 1
smoothSolver:  Solving for Uz, Initial residual = 1, Final residual = 0.00549041, No Iterations 3
smoothSolver:  Solving for h, Initial residual = 1, Final residual = 0.00119245, No Iterations 4
GAMG:  Solving for p, Initial residual = 1, Final residual = 0.00695893, No Iterations 4
GAMG:  Solving for p, Initial residual = 0.505332, Final residual = 0.0014427, No Iterations 2
GAMG:  Solving for p, Initial residual = 0.073758, Final residual = 0.000386863, No Iterations 3
time step continuity errors : sum local = 6.06037, global = -0.00545797, cumulative = -0.00545797
pressureControl: p max 1.15125e+13
pressureControl: p min -5.83547e+13
ExecutionTime = 0.87 s  ClockTime = 1 s

Time = 2

Courant Number mean: 32220.6 max: 1.2653e+07
smoothSolver:  Solving for Ux, Initial residual = 0.202828, Final residual = 0.00070175, No Iterations 3
smoothSolver:  Solving for Uy, Initial residual = 0.0680415, Final residual = 0.000234523, No Iterations 3
smoothSolver:  Solving for Uz, Initial residual = 0.207483, Final residual = 0.000718754, No Iterations 3
smoothSolver:  Solving for h, Initial residual = 0.221299, Final residual = 0.000353033, No Iterations 4
GAMG:  Solving for p, Initial residual = 0.999966, Final residual = 0.00611009, No Iterations 4
GAMG:  Solving for p, Initial residual = 0.368543, Final residual = 0.00148845, No Iterations 2
GAMG:  Solving for p, Initial residual = 0.0700773, Final residual = 0.000395013, No Iterations 3
time step continuity errors : sum local = 5.17821, global = -0.0016052, cumulative = -0.00706318
pressureControl: p max 5.99373e+08
pressureControl: p min -4.20598e+08
ExecutionTime = 1.61 s  ClockTime = 2 s

Time = 3

Courant Number mean: 32535.8 max: 1.64758e+07
smoothSolver:  Solving for Ux, Initial residual = 0.144698, Final residual = 0.000769404, No Iterations 3
smoothSolver:  Solving for Uy, Initial residual = 0.041224, Final residual = 0.000206722, No Iterations 3
smoothSolver:  Solving for Uz, Initial residual = 0.146015, Final residual = 0.000713806, No Iterations 3
smoothSolver:  Solving for h, Initial residual = 0.110022, Final residual = 0.00022418, No Iterations 4
GAMG:  Solving for p, Initial residual = 0.95995, Final residual = 0.00474846, No Iterations 4
GAMG:  Solving for p, Initial residual = 0.205889, Final residual = 0.000916897, No Iterations 2
GAMG:  Solving for p, Initial residual = 0.0468287, Final residual = 0.00026075, No Iterations 3
time step continuity errors : sum local = 4.00391, global = -0.00477936, cumulative = -0.0118425
pressureControl: p max 3.72041e+08
pressureControl: p min -1.94789e+08
ExecutionTime = 2.38 s  ClockTime = 3 s

Time = 4

Courant Number mean: 33146.6 max: 2.51231e+07
smoothSolver:  Solving for Ux, Initial residual = 0.100632, Final residual = 0.000498721, No Iterations 3
smoothSolver:  Solving for Uy, Initial residual = 0.0255686, Final residual = 0.000137154, No Iterations 3
smoothSolver:  Solving for Uz, Initial residual = 0.105449, Final residual = 0.000567284, No Iterations 3
smoothSolver:  Solving for h, Initial residual = 0.0670953, Final residual = 0.00016915, No Iterations 4
GAMG:  Solving for p, Initial residual = 0.902263, Final residual = 0.0084681, No Iterations 3
GAMG:  Solving for p, Initial residual = 0.122521, Final residual = 0.000731163, No Iterations 2
GAMG:  Solving for p, Initial residual = 0.0294644, Final residual = 0.000147596, No Iterations 3
time step continuity errors : sum local = 2.88185, global = -0.013107, cumulative = -0.0249495
pressureControl: p max 2.76047e+08
pressureControl: p min -1.08884e+08
ExecutionTime = 3.07 s  ClockTime = 3 s

Time = 5

Courant Number mean: 33492.9 max: 3.09419e+07
smoothSolver:  Solving for Ux, Initial residual = 0.0751997, Final residual = 0.000356912, No Iterations 3
smoothSolver:  Solving for Uy, Initial residual = 0.0166745, Final residual = 8.41272e-05, No Iterations 3
smoothSolver:  Solving for Uz, Initial residual = 0.0768988, Final residual = 0.00037434, No Iterations 3
smoothSolver:  Solving for h, Initial residual = 0.0456905, Final residual = 0.000139394, No Iterations 4
GAMG:  Solving for p, Initial residual = 0.835209, Final residual = 0.0063868, No Iterations 3
GAMG:  Solving for p, Initial residual = 0.0873728, Final residual = 0.000492845, No Iterations 2
GAMG:  Solving for p, Initial residual = 0.020502, Final residual = 9.57768e-05, No Iterations 3
time step continuity errors : sum local = 2.21395, global = -0.015028, cumulative = -0.0399775
pressureControl: p max 2.27667e+08
pressureControl: p min -5.03431e+07
ExecutionTime = 3.76 s  ClockTime = 4 s

Time = 6

Courant Number mean: 33767.6 max: 3.69816e+07
smoothSolver:  Solving for Ux, Initial residual = 0.058727, Final residual = 0.000299328, No Iterations 3
smoothSolver:  Solving for Uy, Initial residual = 0.0123874, Final residual = 6.90358e-05, No Iterations 3
smoothSolver:  Solving for Uz, Initial residual = 0.0596823, Final residual = 0.000304647, No Iterations 3
smoothSolver:  Solving for h, Initial residual = 0.0333287, Final residual = 0.000120469, No Iterations 4
GAMG:  Solving for p, Initial residual = 0.802141, Final residual = 0.00507578, No Iterations 3
GAMG:  Solving for p, Initial residual = 0.0781919, Final residual = 0.000403253, No Iterations 2
GAMG:  Solving for p, Initial residual = 0.0177995, Final residual = 7.54769e-05, No Iterations 3
time step continuity errors : sum local = 1.71606, global = -0.0225943, cumulative = -0.0625718
pressureControl: p max 2.54337e+08
pressureControl: p min -4.66219e+06
ExecutionTime = 4.45 s  ClockTime = 5 s

Time = 7

Courant Number mean: 34021 max: 3.8819e+07
smoothSolver:  Solving for Ux, Initial residual = 0.0481046, Final residual = 0.000269381, No Iterations 3
smoothSolver:  Solving for Uy, Initial residual = 0.0100301, Final residual = 6.28802e-05, No Iterations 3
smoothSolver:  Solving for Uz, Initial residual = 0.0486788, Final residual = 0.00027301, No Iterations 3
smoothSolver:  Solving for h, Initial residual = 0.0255307, Final residual = 0.000107138, No Iterations 4
GAMG:  Solving for p, Initial residual = 0.805982, Final residual = 0.00446077, No Iterations 3
GAMG:  Solving for p, Initial residual = 0.0825721, Final residual = 0.000391202, No Iterations 2
GAMG:  Solving for p, Initial residual = 0.0185066, Final residual = 0.000182956, No Iterations 2
time step continuity errors : sum local = 3.57821, global = -0.0802118, cumulative = -0.142784
pressureControl: p max 3.08647e+08
pressureControl: p min -3.51308e+06
ExecutionTime = 5.18 s  ClockTime = 5 s

Time = 8

Courant Number mean: 34250.7 max: 3.89696e+07
smoothSolver:  Solving for Ux, Initial residual = 0.0407967, Final residual = 0.000247764, No Iterations 3
smoothSolver:  Solving for Uy, Initial residual = 0.00843218, Final residual = 5.81926e-05, No Iterations 3
smoothSolver:  Solving for Uz, Initial residual = 0.0412975, Final residual = 0.000251156, No Iterations 3
smoothSolver:  Solving for h, Initial residual = 0.0203416, Final residual = 9.70921e-05, No Iterations 4
GAMG:  Solving for p, Initial residual = 0.830299, Final residual = 0.00437833, No Iterations 3
GAMG:  Solving for p, Initial residual = 0.0929372, Final residual = 0.000435748, No Iterations 2
GAMG:  Solving for p, Initial residual = 0.0210663, Final residual = 0.000205818, No Iterations 2
time step continuity errors : sum local = 3.41193, global = -0.0762082, cumulative = -0.218992
pressureControl: p max 3.65911e+08
pressureControl: p min -2.47424e+06
ExecutionTime = 5.84 s  ClockTime = 6 s

Time = 9

Courant Number mean: 34537.7 max: 4.05598e+07
smoothSolver:  Solving for Ux, Initial residual = 0.0357312, Final residual = 0.000231875, No Iterations 3
smoothSolver:  Solving for Uy, Initial residual = 0.00727899, Final residual = 5.38728e-05, No Iterations 3
smoothSolver:  Solving for Uz, Initial residual = 0.0362859, Final residual = 0.000235803, No Iterations 3
smoothSolver:  Solving for h, Initial residual = 0.0167304, Final residual = 8.91956e-05, No Iterations 4
GAMG:  Solving for p, Initial residual = 0.86289, Final residual = 0.00476023, No Iterations 3
GAMG:  Solving for p, Initial residual = 0.108652, Final residual = 0.000559598, No Iterations 2
GAMG:  Solving for p, Initial residual = 0.0253462, Final residual = 0.000100789, No Iterations 3
time step continuity errors : sum local = 1.44359, global = -0.011874, cumulative = -0.230866
pressureControl: p max 4.35364e+08
pressureControl: p min -1.91435e+06
ExecutionTime = 6.53 s  ClockTime = 7 s

Time = 10

Courant Number mean: 34927 max: 4.2466e+07
smoothSolver:  Solving for Ux, Initial residual = 0.0323654, Final residual = 0.000220069, No Iterations 3
smoothSolver:  Solving for Uy, Initial residual = 0.00647829, Final residual = 4.99783e-05, No Iterations 3
smoothSolver:  Solving for Uz, Initial residual = 0.0329579, Final residual = 0.000224744, No Iterations 3
smoothSolver:  Solving for h, Initial residual = 0.0141258, Final residual = 8.27733e-05, No Iterations 4
GAMG:  Solving for p, Initial residual = 0.888626, Final residual = 0.00539214, No Iterations 3
GAMG:  Solving for p, Initial residual = 0.127421, Final residual = 0.000739697, No Iterations 2
GAMG:  Solving for p, Initial residual = 0.0306092, Final residual = 0.000129075, No Iterations 3
time step continuity errors : sum local = 1.63616, global = -0.0048126, cumulative = -0.235678
pressureControl: p max 5.00137e+08
pressureControl: p min -1.18956e+06
ExecutionTime = 7.2 s  ClockTime = 7 s

Time = 11

Courant Number mean: 35331.9 max: 4.40085e+07
smoothSolver:  Solving for Ux, Initial residual = 0.0307157, Final residual = 0.000213078, No Iterations 3
smoothSolver:  Solving for Uy, Initial residual = 0.00601035, Final residual = 4.7291e-05, No Iterations 3
smoothSolver:  Solving for Uz, Initial residual = 0.0313013, Final residual = 0.000218261, No Iterations 3
smoothSolver:  Solving for h, Initial residual = 0.0122283, Final residual = 7.74841e-05, No Iterations 4
GAMG:  Solving for p, Initial residual = 0.908456, Final residual = 0.00589132, No Iterations 3
GAMG:  Solving for p, Initial residual = 0.14786, Final residual = 0.000904936, No Iterations 2
GAMG:  Solving for p, Initial residual = 0.03636, Final residual = 0.000156116, No Iterations 3
time step continuity errors : sum local = 1.77097, global = -0.00266477, cumulative = -0.238343
pressureControl: p max 5.53432e+08
pressureControl: p min -473954
ExecutionTime = 7.88 s  ClockTime = 8 s

Time = 12

Courant Number mean: 35745.5 max: 4.5404e+07
smoothSolver:  Solving for Ux, Initial residual = 0.0304907, Final residual = 0.000210532, No Iterations 3
smoothSolver:  Solving for Uy, Initial residual = 0.00580096, Final residual = 4.60483e-05, No Iterations 3
smoothSolver:  Solving for Uz, Initial residual = 0.0311019, Final residual = 0.000216183, No Iterations 3
smoothSolver:  Solving for h, Initial residual = 0.0108028, Final residual = 7.3058e-05, No Iterations 4
GAMG:  Solving for p, Initial residual = 0.924337, Final residual = 0.00620042, No Iterations 3
GAMG:  Solving for p, Initial residual = 0.168264, Final residual = 0.00105436, No Iterations 2
GAMG:  Solving for p, Initial residual = 0.0420019, Final residual = 0.000184227, No Iterations 3
time step continuity errors : sum local = 1.8873, global = -0.0017371, cumulative = -0.24008
pressureControl: p max 5.9103e+08
pressureControl: p min -202269
ExecutionTime = 8.56 s  ClockTime = 9 s

Time = 13

Courant Number mean: 36148.3 max: 4.66422e+07
smoothSolver:  Solving for Ux, Initial residual = 0.0309042, Final residual = 0.000210525, No Iterations 3
smoothSolver:  Solving for Uy, Initial residual = 0.00568696, Final residual = 4.54625e-05, No Iterations 3
smoothSolver:  Solving for Uz, Initial residual = 0.0315742, Final residual = 0.00021645, No Iterations 3
smoothSolver:  Solving for h, Initial residual = 0.00970609, Final residual = 6.93123e-05, No Iterations 4
GAMG:  Solving for p, Initial residual = 0.936098, Final residual = 0.00638875, No Iterations 3
GAMG:  Solving for p, Initial residual = 0.185666, Final residual = 0.00118109, No Iterations 2
GAMG:  Solving for p, Initial residual = 0.0467575, Final residual = 0.000211003, No Iterations 3
time step continuity errors : sum local = 1.99273, global = -0.00120787, cumulative = -0.241288
pressureControl: p max 6.1546e+08
pressureControl: p min -119669
ExecutionTime = 9.24 s  ClockTime = 9 s

Time = 14

Courant Number mean: 36533.7 max: 4.77187e+07
smoothSolver:  Solving for Ux, Initial residual = 0.0314145, Final residual = 0.000211591, No Iterations 3
smoothSolver:  Solving for Uy, Initial residual = 0.00557435, Final residual = 4.49677e-05, No Iterations 3
smoothSolver:  Solving for Uz, Initial residual = 0.0321273, Final residual = 0.00021762, No Iterations 3
smoothSolver:  Solving for h, Initial residual = 0.00884753, Final residual = 6.60992e-05, No Iterations 4
GAMG:  Solving for p, Initial residual = 0.94273, Final residual = 0.00650565, No Iterations 3
GAMG:  Solving for p, Initial residual = 0.197381, Final residual = 0.00127186, No Iterations 2
GAMG:  Solving for p, Initial residual = 0.0500148, Final residual = 0.000233635, No Iterations 3
time step continuity errors : sum local = 2.09045, global = -0.000828375, cumulative = -0.242117
pressureControl: p max 6.30886e+08
pressureControl: p min -46048.5
ExecutionTime = 9.91 s  ClockTime = 10 s

Time = 15

Courant Number mean: 36898.3 max: 4.85852e+07
smoothSolver:  Solving for Ux, Initial residual = 0.0318244, Final residual = 0.000213198, No Iterations 3
smoothSolver:  Solving for Uy, Initial residual = 0.00543912, Final residual = 4.43783e-05, No Iterations 3
smoothSolver:  Solving for Uz, Initial residual = 0.0325475, Final residual = 0.000219149, No Iterations 3
smoothSolver:  Solving for h, Initial residual = 0.00816452, Final residual = 6.33172e-05, No Iterations 4
GAMG:  Solving for p, Initial residual = 0.945091, Final residual = 0.00658133, No Iterations 3
GAMG:  Solving for p, Initial residual = 0.203145, Final residual = 0.00132623, No Iterations 2
GAMG:  Solving for p, Initial residual = 0.0517625, Final residual = 0.000250794, No Iterations 3
time step continuity errors : sum local = 2.17641, global = -0.000551157, cumulative = -0.242668
pressureControl: p max 6.39497e+08
pressureControl: p min -30348.9
ExecutionTime = 10.59 s  ClockTime = 11 s

Time = 16

Courant Number mean: 37238.2 max: 4.9269e+07
smoothSolver:  Solving for Ux, Initial residual = 0.0320843, Final residual = 0.000215119, No Iterations 3
smoothSolver:  Solving for Uy, Initial residual = 0.00528791, Final residual = 4.37276e-05, No Iterations 3
smoothSolver:  Solving for Uz, Initial residual = 0.0327973, Final residual = 0.000220816, No Iterations 3
smoothSolver:  Solving for h, Initial residual = 0.00761204, Final residual = 6.08733e-05, No Iterations 4
GAMG:  Solving for p, Initial residual = 0.945646, Final residual = 0.00663892, No Iterations 3
GAMG:  Solving for p, Initial residual = 0.206528, Final residual = 0.00136609, No Iterations 2
GAMG:  Solving for p, Initial residual = 0.052905, Final residual = 0.000265714, No Iterations 3
time step continuity errors : sum local = 2.24808, global = -0.000674868, cumulative = -0.243343
pressureControl: p max 6.42877e+08
pressureControl: p min -32198.8
ExecutionTime = 11.27 s  ClockTime = 11 s

Time = 17

Courant Number mean: 37553.4 max: 4.9664e+07
smoothSolver:  Solving for Ux, Initial residual = 0.0321917, Final residual = 0.000217181, No Iterations 3
smoothSolver:  Solving for Uy, Initial residual = 0.00512975, Final residual = 4.30589e-05, No Iterations 3
smoothSolver:  Solving for Uz, Initial residual = 0.0328692, Final residual = 0.000222527, No Iterations 3
smoothSolver:  Solving for h, Initial residual = 0.00715638, Final residual = 5.87054e-05, No Iterations 4
GAMG:  Solving for p, Initial residual = 0.946491, Final residual = 0.00669732, No Iterations 3
GAMG:  Solving for p, Initial residual = 0.208796, Final residual = 0.00140128, No Iterations 2
GAMG:  Solving for p, Initial residual = 0.0537612, Final residual = 0.000280425, No Iterations 3
time step continuity errors : sum local = 2.31176, global = -0.000653264, cumulative = -0.243996
pressureControl: p max 6.42505e+08
pressureControl: p min -31074.1
ExecutionTime = 11.95 s  ClockTime = 12 s

Time = 18

Courant Number mean: 37841.1 max: 4.95249e+07
smoothSolver:  Solving for Ux, Initial residual = 0.0321681, Final residual = 0.000219177, No Iterations 3
smoothSolver:  Solving for Uy, Initial residual = 0.00497056, Final residual = 4.23917e-05, No Iterations 3
smoothSolver:  Solving for Uz, Initial residual = 0.0328119, Final residual = 0.000224235, No Iterations 3
smoothSolver:  Solving for h, Initial residual = 0.00677405, Final residual = 5.67658e-05, No Iterations 4
GAMG:  Solving for p, Initial residual = 0.946632, Final residual = 0.00672252, No Iterations 3
GAMG:  Solving for p, Initial residual = 0.209747, Final residual = 0.00142994, No Iterations 2
GAMG:  Solving for p, Initial residual = 0.0542557, Final residual = 0.000294928, No Iterations 3
time step continuity errors : sum local = 2.37419, global = -0.000813324, cumulative = -0.244809
pressureControl: p max 6.40072e+08
pressureControl: p min -27935.3
ExecutionTime = 12.63 s  ClockTime = 13 s

Time = 19

Courant Number mean: 38101.4 max: 4.81394e+07
smoothSolver:  Solving for Ux, Initial residual = 0.0320444, Final residual = 0.000221224, No Iterations 3
smoothSolver:  Solving for Uy, Initial residual = 0.00481364, Final residual = 4.1733e-05, No Iterations 3
smoothSolver:  Solving for Uz, Initial residual = 0.0326566, Final residual = 0.000225974, No Iterations 3
smoothSolver:  Solving for h, Initial residual = 0.00644837, Final residual = 5.50186e-05, No Iterations 4
GAMG:  Solving for p, Initial residual = 0.946287, Final residual = 0.00673201, No Iterations 3
GAMG:  Solving for p, Initial residual = 0.209155, Final residual = 0.00144631, No Iterations 2
GAMG:  Solving for p, Initial residual = 0.0543174, Final residual = 0.000308834, No Iterations 3
time step continuity errors : sum local = 2.43639, global = -0.000764035, cumulative = -0.245573
pressureControl: p max 6.35806e+08
pressureControl: p min -27095.8
ExecutionTime = 13.31 s  ClockTime = 14 s

Time = 20

Courant Number mean: 38334.8 max: 4.46555e+07
smoothSolver:  Solving for Ux, Initial residual = 0.031867, Final residual = 0.000223288, No Iterations 3
smoothSolver:  Solving for Uy, Initial residual = 0.00466459, Final residual = 4.1096e-05, No Iterations 3
smoothSolver:  Solving for Uz, Initial residual = 0.0324384, Final residual = 0.00022766, No Iterations 3
smoothSolver:  Solving for h, Initial residual = 0.0061675, Final residual = 5.3435e-05, No Iterations 4
GAMG:  Solving for p, Initial residual = 0.945643, Final residual = 0.00672873, No Iterations 3
GAMG:  Solving for p, Initial residual = 0.207721, Final residual = 0.00146187, No Iterations 2
GAMG:  Solving for p, Initial residual = 0.0541682, Final residual = 0.000323114, No Iterations 3
time step continuity errors : sum local = 2.50062, global = -0.000919984, cumulative = -0.246493
pressureControl: p max 6.30203e+08
pressureControl: p min -30991.5
ExecutionTime = 13.99 s  ClockTime = 14 s

Time = 21

Courant Number mean: 38542.6 max: 4.32854e+07
smoothSolver:  Solving for Ux, Initial residual = 0.0316617, Final residual = 0.000225298, No Iterations 3
smoothSolver:  Solving for Uy, Initial residual = 0.00452517, Final residual = 4.04833e-05, No Iterations 3
smoothSolver:  Solving for Uz, Initial residual = 0.0321719, Final residual = 0.000229222, No Iterations 3
smoothSolver:  Solving for h, Initial residual = 0.00592221, Final residual = 5.19857e-05, No Iterations 4
GAMG:  Solving for p, Initial residual = 0.944601, Final residual = 0.006737, No Iterations 3
GAMG:  Solving for p, Initial residual = 0.205915, Final residual = 0.00147613, No Iterations 2
GAMG:  Solving for p, Initial residual = 0.0539522, Final residual = 0.000337296, No Iterations 3
time step continuity errors : sum local = 2.56046, global = -0.00104873, cumulative = -0.247542
pressureControl: p max 6.23337e+08
pressureControl: p min -40453.6
ExecutionTime = 14.68 s  ClockTime = 15 s

Time = 22

Courant Number mean: 38726.5 max: 4.47476e+07
smoothSolver:  Solving for Ux, Initial residual = 0.0314274, Final residual = 0.000227118, No Iterations 3
smoothSolver:  Solving for Uy, Initial residual = 0.00439623, Final residual = 3.98872e-05, No Iterations 3
smoothSolver:  Solving for Uz, Initial residual = 0.0318652, Final residual = 0.000230503, No Iterations 3
smoothSolver:  Solving for h, Initial residual = 0.00570519, Final residual = 5.06485e-05, No Iterations 4
GAMG:  Solving for p, Initial residual = 0.943348, Final residual = 0.00672335, No Iterations 3
GAMG:  Solving for p, Initial residual = 0.203872, Final residual = 0.00148673, No Iterations 2
GAMG:  Solving for p, Initial residual = 0.0536723, Final residual = 0.000352046, No Iterations 3
time step continuity errors : sum local = 2.62131, global = -0.00139767, cumulative = -0.24894
pressureControl: p max 6.15621e+08
pressureControl: p min -53016.6
ExecutionTime = 15.34 s  ClockTime = 16 s

Time = 23

Courant Number mean: 38888.5 max: 4.56521e+07
smoothSolver:  Solving for Ux, Initial residual = 0.0311619, Final residual = 0.000228662, No Iterations 3
smoothSolver:  Solving for Uy, Initial residual = 0.00427738, Final residual = 3.93017e-05, No Iterations 3
smoothSolver:  Solving for Uz, Initial residual = 0.0315369, Final residual = 0.000231532, No Iterations 3
smoothSolver:  Solving for h, Initial residual = 0.00551137, Final residual = 4.94075e-05, No Iterations 4
GAMG:  Solving for p, Initial residual = 0.941933, Final residual = 0.00667182, No Iterations 3
GAMG:  Solving for p, Initial residual = 0.201738, Final residual = 0.00149354, No Iterations 2
GAMG:  Solving for p, Initial residual = 0.0533542, Final residual = 0.000368002, No Iterations 3
time step continuity errors : sum local = 2.68764, global = -0.00159325, cumulative = -0.250533
pressureControl: p max 6.0732e+08
pressureControl: p min -65211.3
ExecutionTime = 16.02 s  ClockTime = 16 s

Time = 24

Courant Number mean: 39030.4 max: 4.60694e+07
smoothSolver:  Solving for Ux, Initial residual = 0.0308689, Final residual = 0.000229885, No Iterations 3
smoothSolver:  Solving for Uy, Initial residual = 0.00416933, Final residual = 3.87423e-05, No Iterations 3
smoothSolver:  Solving for Uz, Initial residual = 0.0311916, Final residual = 0.00023233, No Iterations 3
smoothSolver:  Solving for h, Initial residual = 0.00533687, Final residual = 4.82489e-05, No Iterations 4
GAMG:  Solving for p, Initial residual = 0.940255, Final residual = 0.0065963, No Iterations 3
GAMG:  Solving for p, Initial residual = 0.199399, Final residual = 0.00149989, No Iterations 2
GAMG:  Solving for p, Initial residual = 0.0530264, Final residual = 0.000384767, No Iterations 3
time step continuity errors : sum local = 2.75665, global = -0.0016624, cumulative = -0.252195
pressureControl: p max 5.98704e+08
pressureControl: p min -74784.9
ExecutionTime = 16.7 s  ClockTime = 17 s

Time = 25

Courant Number mean: 39154.5 max: 4.62491e+07
smoothSolver:  Solving for Ux, Initial residual = 0.0305763, Final residual = 0.000230908, No Iterations 3
smoothSolver:  Solving for Uy, Initial residual = 0.00407326, Final residual = 3.82231e-05, No Iterations 3
smoothSolver:  Solving for Uz, Initial residual = 0.0308427, Final residual = 0.000232867, No Iterations 3
smoothSolver:  Solving for h, Initial residual = 0.00517845, Final residual = 4.7164e-05, No Iterations 4
GAMG:  Solving for p, Initial residual = 0.938058, Final residual = 0.0065065, No Iterations 3
GAMG:  Solving for p, Initial residual = 0.197022, Final residual = 0.00150697, No Iterations 2
GAMG:  Solving for p, Initial residual = 0.052702, Final residual = 0.000402012, No Iterations 3
time step continuity errors : sum local = 2.82575, global = -0.00182396, cumulative = -0.254019
pressureControl: p max 5.89433e+08
pressureControl: p min -81986.5
ExecutionTime = 17.37 s  ClockTime = 18 s

Time = 26

Courant Number mean: 39262.7 max: 4.63336e+07
smoothSolver:  Solving for Ux, Initial residual = 0.0303121, Final residual = 0.000231813, No Iterations 3
smoothSolver:  Solving for Uy, Initial residual = 0.00399091, Final residual = 3.77707e-05, No Iterations 3
smoothSolver:  Solving for Uz, Initial residual = 0.0305061, Final residual = 0.000233199, No Iterations 3
smoothSolver:  Solving for h, Initial residual = 0.00503373, Final residual = 4.61455e-05, No Iterations 4
GAMG:  Solving for p, Initial residual = 0.935337, Final residual = 0.0091698, No Iterations 2
GAMG:  Solving for p, Initial residual = 0.161926, Final residual = 0.000978462, No Iterations 3
GAMG:  Solving for p, Initial residual = 0.0898813, Final residual = 0.000765212, No Iterations 2
time step continuity errors : sum local = 5.16365, global = -0.00382478, cumulative = -0.257844
pressureControl: p max 5.6945e+08
pressureControl: p min -90368.4
ExecutionTime = 18.05 s  ClockTime = 18 s

Time = 27

Courant Number mean: 39263.9 max: 4.6389e+07
smoothSolver:  Solving for Ux, Initial residual = 0.0297302, Final residual = 0.000231676, No Iterations 3
smoothSolver:  Solving for Uy, Initial residual = 0.00391112, Final residual = 3.74246e-05, No Iterations 3
smoothSolver:  Solving for Uz, Initial residual = 0.0299032, Final residual = 0.000232743, No Iterations 3
smoothSolver:  Solving for h, Initial residual = 0.00490525, Final residual = 4.52201e-05, No Iterations 4
GAMG:  Solving for p, Initial residual = 0.931854, Final residual = 0.00900022, No Iterations 2
GAMG:  Solving for p, Initial residual = 0.162048, Final residual = 0.00100861, No Iterations 3
GAMG:  Solving for p, Initial residual = 0.0901494, Final residual = 0.000791548, No Iterations 2
time step continuity errors : sum local = 5.26502, global = -0.00415519, cumulative = -0.261999
pressureControl: p max 5.62983e+08
pressureControl: p min -97234.6
ExecutionTime = 18.71 s  ClockTime = 19 s

Time = 28

Courant Number mean: 39342.4 max: 4.64371e+07
smoothSolver:  Solving for Ux, Initial residual = 0.029415, Final residual = 0.000232112, No Iterations 3
smoothSolver:  Solving for Uy, Initial residual = 0.00386887, Final residual = 3.74527e-05, No Iterations 3
smoothSolver:  Solving for Uz, Initial residual = 0.0295559, Final residual = 0.000232792, No Iterations 3
smoothSolver:  Solving for h, Initial residual = 0.00478092, Final residual = 4.4305e-05, No Iterations 4
GAMG:  Solving for p, Initial residual = 0.926358, Final residual = 0.00878096, No Iterations 2
GAMG:  Solving for p, Initial residual = 0.160421, Final residual = 0.00103132, No Iterations 3
GAMG:  Solving for p, Initial residual = 0.0907136, Final residual = 0.000809116, No Iterations 2
time step continuity errors : sum local = 5.30087, global = -0.00431836, cumulative = -0.266317
pressureControl: p max 5.54226e+08
pressureControl: p min -106052
ExecutionTime = 19.37 s  ClockTime = 20 s

Time = 29

Courant Number mean: 39408.2 max: 4.64688e+07
smoothSolver:  Solving for Ux, Initial residual = 0.029143, Final residual = 0.000232141, No Iterations 3
smoothSolver:  Solving for Uy, Initial residual = 0.00385, Final residual = 3.78622e-05, No Iterations 3
smoothSolver:  Solving for Uz, Initial residual = 0.0292682, Final residual = 0.00023248, No Iterations 3
smoothSolver:  Solving for h, Initial residual = 0.00466568, Final residual = 4.34343e-05, No Iterations 4
GAMG:  Solving for p, Initial residual = 0.918977, Final residual = 0.00852297, No Iterations 2
GAMG:  Solving for p, Initial residual = 0.158809, Final residual = 0.00105018, No Iterations 3
GAMG:  Solving for p, Initial residual = 0.0910352, Final residual = 0.000823794, No Iterations 2
time step continuity errors : sum local = 5.31602, global = -0.00419195, cumulative = -0.270509
pressureControl: p max 5.45232e+08
pressureControl: p min -116089
ExecutionTime = 20.03 s  ClockTime = 20 s

Time = 30

Courant Number mean: 39464.9 max: 4.64364e+07
smoothSolver:  Solving for Ux, Initial residual = 0.0288794, Final residual = 0.000231463, No Iterations 3
smoothSolver:  Solving for Uy, Initial residual = 0.00384159, Final residual = 3.83599e-05, No Iterations 3
smoothSolver:  Solving for Uz, Initial residual = 0.0289756, Final residual = 0.000231493, No Iterations 3
smoothSolver:  Solving for h, Initial residual = 0.00455836, Final residual = 4.25978e-05, No Iterations 4
GAMG:  Solving for p, Initial residual = 0.911013, Final residual = 0.0082495, No Iterations 2
GAMG:  Solving for p, Initial residual = 0.157519, Final residual = 0.00106769, No Iterations 3
GAMG:  Solving for p, Initial residual = 0.0910012, Final residual = 0.000837413, No Iterations 2
time step continuity errors : sum local = 5.32438, global = -0.00397795, cumulative = -0.274487
pressureControl: p max 5.35352e+08
pressureControl: p min -126048
ExecutionTime = 20.69 s  ClockTime = 21 s

Time = 31

Courant Number mean: 39513.6 max: 4.63088e+07
smoothSolver:  Solving for Ux, Initial residual = 0.0285949, Final residual = 0.000230224, No Iterations 3
smoothSolver:  Solving for Uy, Initial residual = 0.00382805, Final residual = 9.77395e-06, No Iterations 4
smoothSolver:  Solving for Uz, Initial residual = 0.0286796, Final residual = 0.000229974, No Iterations 3
smoothSolver:  Solving for h, Initial residual = 0.00445804, Final residual = 4.17899e-05, No Iterations 4
GAMG:  Solving for p, Initial residual = 0.903584, Final residual = 0.0080634, No Iterations 2
GAMG:  Solving for p, Initial residual = 0.156512, Final residual = 0.00108344, No Iterations 3
GAMG:  Solving for p, Initial residual = 0.0907117, Final residual = 0.000850802, No Iterations 2
time step continuity errors : sum local = 5.334, global = -0.00349781, cumulative = -0.277985
pressureControl: p max 5.25043e+08
pressureControl: p min -134554
ExecutionTime = 21.35 s  ClockTime = 22 s

Time = 32

Courant Number mean: 39555.4 max: 4.60797e+07
smoothSolver:  Solving for Ux, Initial residual = 0.028329, Final residual = 0.000228995, No Iterations 3
smoothSolver:  Solving for Uy, Initial residual = 0.00380348, Final residual = 9.75318e-06, No Iterations 4
smoothSolver:  Solving for Uz, Initial residual = 0.0283947, Final residual = 0.000228573, No Iterations 3
smoothSolver:  Solving for h, Initial residual = 0.00436363, Final residual = 4.10107e-05, No Iterations 4
GAMG:  Solving for p, Initial residual = 0.897131, Final residual = 0.00801622, No Iterations 2
GAMG:  Solving for p, Initial residual = 0.155459, Final residual = 0.00109723, No Iterations 3
GAMG:  Solving for p, Initial residual = 0.0903801, Final residual = 0.000864081, No Iterations 2
time step continuity errors : sum local = 5.34406, global = -0.00306879, cumulative = -0.281054
pressureControl: p max 5.14334e+08
pressureControl: p min -139618
ExecutionTime = 22.02 s  ClockTime = 22 s

Time = 33

Courant Number mean: 39591.5 max: 4.57782e+07
smoothSolver:  Solving for Ux, Initial residual = 0.0280643, Final residual = 0.000228014, No Iterations 3
smoothSolver:  Solving for Uy, Initial residual = 0.00377306, Final residual = 9.67882e-06, No Iterations 4
smoothSolver:  Solving for Uz, Initial residual = 0.0281292, Final residual = 0.000227379, No Iterations 3
smoothSolver:  Solving for h, Initial residual = 0.00427432, Final residual = 4.02631e-05, No Iterations 4
GAMG:  Solving for p, Initial residual = 0.891281, Final residual = 0.00792452, No Iterations 2
GAMG:  Solving for p, Initial residual = 0.154437, Final residual = 0.00109933, No Iterations 3
GAMG:  Solving for p, Initial residual = 0.0892928, Final residual = 0.000876039, No Iterations 2
time step continuity errors : sum local = 5.3491, global = -0.00222059, cumulative = -0.283275
pressureControl: p max 5.035e+08
pressureControl: p min -140181
ExecutionTime = 22.71 s  ClockTime = 23 s

Time = 34

Courant Number mean: 39622.9 max: 4.5438e+07
smoothSolver:  Solving for Ux, Initial residual = 0.0277937, Final residual = 0.000226767, No Iterations 3
smoothSolver:  Solving for Uy, Initial residual = 0.00374188, Final residual = 9.6009e-06, No Iterations 4
smoothSolver:  Solving for Uz, Initial residual = 0.0278547, Final residual = 0.000225987, No Iterations 3
smoothSolver:  Solving for h, Initial residual = 0.00418993, Final residual = 3.95479e-05, No Iterations 4
GAMG:  Solving for p, Initial residual = 0.885594, Final residual = 0.00775829, No Iterations 2
GAMG:  Solving for p, Initial residual = 0.153334, Final residual = 0.00108917, No Iterations 3
GAMG:  Solving for p, Initial residual = 0.0880093, Final residual = 0.000538276, No Iterations 3
time step continuity errors : sum local = 3.24594, global = -0.000601848, cumulative = -0.283876
pressureControl: p max 4.98394e+08
pressureControl: p min -136127
ExecutionTime = 23.41 s  ClockTime = 24 s

Time = 35

Courant Number mean: 39742.7 max: 4.50828e+07
smoothSolver:  Solving for Ux, Initial residual = 0.0276263, Final residual = 0.000225541, No Iterations 3
smoothSolver:  Solving for Uy, Initial residual = 0.00372187, Final residual = 9.51285e-06, No Iterations 4
smoothSolver:  Solving for Uz, Initial residual = 0.0276959, Final residual = 0.000224653, No Iterations 3
smoothSolver:  Solving for h, Initial residual = 0.00410593, Final residual = 3.88251e-05, No Iterations 4
GAMG:  Solving for p, Initial residual = 0.880213, Final residual = 0.00749875, No Iterations 2
GAMG:  Solving for p, Initial residual = 0.151515, Final residual = 0.00106571, No Iterations 3
GAMG:  Solving for p, Initial residual = 0.0855882, Final residual = 0.000537519, No Iterations 3
time step continuity errors : sum local = 3.19473, global = -0.000293024, cumulative = -0.284169
pressureControl: p max 4.83666e+08
pressureControl: p min -129504
ExecutionTime = 24.1 s  ClockTime = 24 s

Time = 36

Courant Number mean: 39764.5 max: 4.47189e+07
smoothSolver:  Solving for Ux, Initial residual = 0.0272828, Final residual = 0.000229174, No Iterations 3
smoothSolver:  Solving for Uy, Initial residual = 0.00368443, Final residual = 9.61733e-06, No Iterations 4
smoothSolver:  Solving for Uz, Initial residual = 0.0274018, Final residual = 0.000229105, No Iterations 3
smoothSolver:  Solving for h, Initial residual = 0.00402935, Final residual = 3.81754e-05, No Iterations 4
GAMG:  Solving for p, Initial residual = 0.859339, Final residual = 0.00735879, No Iterations 2
GAMG:  Solving for p, Initial residual = 0.1469, Final residual = 0.00105101, No Iterations 3
GAMG:  Solving for p, Initial residual = 0.0829042, Final residual = 0.000536405, No Iterations 3
time step continuity errors : sum local = 3.14611, global = 8.53039e-05, cumulative = -0.284084
pressureControl: p max 4.69258e+08
pressureControl: p min -121480
ExecutionTime = 24.79 s  ClockTime = 25 s

Time = 37

Courant Number mean: 39782.5 max: 4.43468e+07
smoothSolver:  Solving for Ux, Initial residual = 0.0268948, Final residual = 0.000236014, No Iterations 3
smoothSolver:  Solving for Uy, Initial residual = 0.00366721, Final residual = 1.00565e-05, No Iterations 4
smoothSolver:  Solving for Uz, Initial residual = 0.0270404, Final residual = 0.000236173, No Iterations 3
smoothSolver:  Solving for h, Initial residual = 0.00395721, Final residual = 3.75532e-05, No Iterations 4
GAMG:  Solving for p, Initial residual = 0.80948, Final residual = 0.0070595, No Iterations 2
GAMG:  Solving for p, Initial residual = 0.139217, Final residual = 0.00104343, No Iterations 3
GAMG:  Solving for p, Initial residual = 0.0791398, Final residual = 0.000531744, No Iterations 3
time step continuity errors : sum local = 3.07656, global = 0.000328017, cumulative = -0.283756
pressureControl: p max 4.55322e+08
pressureControl: p min -113089
ExecutionTime = 25.61 s  ClockTime = 26 s

Time = 38

Courant Number mean: 39797.4 max: 4.39603e+07
smoothSolver:  Solving for Ux, Initial residual = 0.0266579, Final residual = 0.000235269, No Iterations 3
smoothSolver:  Solving for Uy, Initial residual = 0.00368015, Final residual = 1.02771e-05, No Iterations 4
smoothSolver:  Solving for Uz, Initial residual = 0.026899, Final residual = 0.00023867, No Iterations 3
smoothSolver:  Solving for h, Initial residual = 0.00389104, Final residual = 3.69526e-05, No Iterations 4
GAMG:  Solving for p, Initial residual = 0.7575, Final residual = 0.00669305, No Iterations 2
GAMG:  Solving for p, Initial residual = 0.137281, Final residual = 0.00100803, No Iterations 3
GAMG:  Solving for p, Initial residual = 0.0733642, Final residual = 0.000519999, No Iterations 3
time step continuity errors : sum local = 2.97004, global = 0.000324959, cumulative = -0.283431
pressureControl: p max 4.40983e+08
pressureControl: p min -104955
ExecutionTime = 26.38 s  ClockTime = 27 s

Time = 39

Courant Number mean: 39810.4 max: 4.35559e+07
smoothSolver:  Solving for Ux, Initial residual = 0.0261337, Final residual = 0.000227225, No Iterations 3
smoothSolver:  Solving for Uy, Initial residual = 0.00361948, Final residual = 9.90253e-06, No Iterations 4
smoothSolver:  Solving for Uz, Initial residual = 0.0263398, Final residual = 0.000229543, No Iterations 3
smoothSolver:  Solving for h, Initial residual = 0.00382853, Final residual = 3.63795e-05, No Iterations 4
GAMG:  Solving for p, Initial residual = 0.714262, Final residual = 0.00612047, No Iterations 2
GAMG:  Solving for p, Initial residual = 0.136157, Final residual = 0.000935015, No Iterations 3
GAMG:  Solving for p, Initial residual = 0.0678541, Final residual = 0.000496554, No Iterations 3
time step continuity errors : sum local = 2.80569, global = 0.000191812, cumulative = -0.283239
pressureControl: p max 4.26279e+08
pressureControl: p min -97352.2
ExecutionTime = 27.07 s  ClockTime = 27 s

Time = 40

Courant Number mean: 39822 max: 4.31363e+07
smoothSolver:  Solving for Ux, Initial residual = 0.0255215, Final residual = 0.000218533, No Iterations 3
smoothSolver:  Solving for Uy, Initial residual = 0.00352601, Final residual = 9.31713e-06, No Iterations 4
smoothSolver:  Solving for Uz, Initial residual = 0.025679, Final residual = 0.000218609, No Iterations 3
smoothSolver:  Solving for h, Initial residual = 0.00376754, Final residual = 3.58313e-05, No Iterations 4
GAMG:  Solving for p, Initial residual = 0.684678, Final residual = 0.00564317, No Iterations 2
GAMG:  Solving for p, Initial residual = 0.133856, Final residual = 0.000862666, No Iterations 3
GAMG:  Solving for p, Initial residual = 0.0640304, Final residual = 0.000466583, No Iterations 3
time step continuity errors : sum local = 2.60427, global = -0.000635854, cumulative = -0.283875
pressureControl: p max 4.11385e+08
pressureControl: p min -90257.1
ExecutionTime = 27.79 s  ClockTime = 28 s

Time = 41

Courant Number mean: 39832.1 max: 4.27062e+07
smoothSolver:  Solving for Ux, Initial residual = 0.0249949, Final residual = 0.000213638, No Iterations 3
smoothSolver:  Solving for Uy, Initial residual = 0.00344934, Final residual = 8.96258e-06, No Iterations 4
smoothSolver:  Solving for Uz, Initial residual = 0.0252039, Final residual = 0.000214235, No Iterations 3
smoothSolver:  Solving for h, Initial residual = 0.00370709, Final residual = 3.53021e-05, No Iterations 4
GAMG:  Solving for p, Initial residual = 0.662948, Final residual = 0.00529269, No Iterations 2
GAMG:  Solving for p, Initial residual = 0.129662, Final residual = 0.000797524, No Iterations 3
GAMG:  Solving for p, Initial residual = 0.0604094, Final residual = 0.000434266, No Iterations 3
time step continuity errors : sum local = 2.3899, global = -0.00087822, cumulative = -0.284753
pressureControl: p max 3.96152e+08
pressureControl: p min -83589.9
ExecutionTime = 28.57 s  ClockTime = 29 s

Time = 42

Courant Number mean: 39841.4 max: 4.22778e+07
smoothSolver:  Solving for Ux, Initial residual = 0.0244572, Final residual = 0.000208216, No Iterations 3
smoothSolver:  Solving for Uy, Initial residual = 0.0033817, Final residual = 8.72208e-06, No Iterations 4
smoothSolver:  Solving for Uz, Initial residual = 0.0247943, Final residual = 0.000212657, No Iterations 3
smoothSolver:  Solving for h, Initial residual = 0.00364896, Final residual = 3.47868e-05, No Iterations 4
GAMG:  Solving for p, Initial residual = 0.646156, Final residual = 0.00500988, No Iterations 2
GAMG:  Solving for p, Initial residual = 0.127735, Final residual = 0.000736452, No Iterations 3
GAMG:  Solving for p, Initial residual = 0.0575202, Final residual = 0.000405364, No Iterations 3
time step continuity errors : sum local = 2.19919, global = -0.00188969, cumulative = -0.286643
pressureControl: p max 3.80412e+08
pressureControl: p min -77798.4
ExecutionTime = 29.41 s  ClockTime = 30 s

Time = 43

Courant Number mean: 39849 max: 4.18533e+07
smoothSolver:  Solving for Ux, Initial residual = 0.0239425, Final residual = 0.000203265, No Iterations 3
smoothSolver:  Solving for Uy, Initial residual = 0.00332372, Final residual = 8.50943e-06, No Iterations 4
smoothSolver:  Solving for Uz, Initial residual = 0.0243825, Final residual = 0.000210233, No Iterations 3
smoothSolver:  Solving for h, Initial residual = 0.0035933, Final residual = 3.42861e-05, No Iterations 4
GAMG:  Solving for p, Initial residual = 0.630577, Final residual = 0.00470506, No Iterations 2
GAMG:  Solving for p, Initial residual = 0.12498, Final residual = 0.000689151, No Iterations 3
GAMG:  Solving for p, Initial residual = 0.0545575, Final residual = 0.000380084, No Iterations 3
time step continuity errors : sum local = 2.03603, global = -0.00263487, cumulative = -0.289278
pressureControl: p max 3.64622e+08
pressureControl: p min -78538.1
ExecutionTime = 30.13 s  ClockTime = 30 s

Time = 44

Courant Number mean: 39855.8 max: 4.14341e+07
smoothSolver:  Solving for Ux, Initial residual = 0.0235195, Final residual = 0.00020119, No Iterations 3
smoothSolver:  Solving for Uy, Initial residual = 0.00328388, Final residual = 8.42802e-06, No Iterations 4
smoothSolver:  Solving for Uz, Initial residual = 0.0239868, Final residual = 0.000207346, No Iterations 3
smoothSolver:  Solving for h, Initial residual = 0.00353942, Final residual = 3.37997e-05, No Iterations 4
GAMG:  Solving for p, Initial residual = 0.613162, Final residual = 0.00437785, No Iterations 2
GAMG:  Solving for p, Initial residual = 0.120296, Final residual = 0.000642069, No Iterations 3
GAMG:  Solving for p, Initial residual = 0.0514829, Final residual = 0.000355529, No Iterations 3
time step continuity errors : sum local = 1.88332, global = -0.00217388, cumulative = -0.291452
pressureControl: p max 3.48645e+08
pressureControl: p min -83314.2
ExecutionTime = 30.89 s  ClockTime = 31 s

Time = 45

Courant Number mean: 39862 max: 4.1028e+07
smoothSolver:  Solving for Ux, Initial residual = 0.0231206, Final residual = 0.000200248, No Iterations 3
smoothSolver:  Solving for Uy, Initial residual = 0.00325427, Final residual = 8.38704e-06, No Iterations 4
smoothSolver:  Solving for Uz, Initial residual = 0.023567, Final residual = 0.000203292, No Iterations 3
smoothSolver:  Solving for h, Initial residual = 0.00348741, Final residual = 3.33276e-05, No Iterations 4
GAMG:  Solving for p, Initial residual = 0.594745, Final residual = 0.00407003, No Iterations 2
GAMG:  Solving for p, Initial residual = 0.115965, Final residual = 0.00114691, No Iterations 2
GAMG:  Solving for p, Initial residual = 0.0416711, Final residual = 0.000369796, No Iterations 3
time step continuity errors : sum local = 1.91958, global = -0.00160032, cumulative = -0.293052
pressureControl: p max 3.30537e+08
pressureControl: p min -87607.2
ExecutionTime = 31.59 s  ClockTime = 32 s

Time = 46

Courant Number mean: 39859.9 max: 4.06259e+07
smoothSolver:  Solving for Ux, Initial residual = 0.0226044, Final residual = 0.00019832, No Iterations 3
smoothSolver:  Solving for Uy, Initial residual = 0.00322884, Final residual = 8.41846e-06, No Iterations 4
smoothSolver:  Solving for Uz, Initial residual = 0.0230369, Final residual = 0.000199111, No Iterations 3
smoothSolver:  Solving for h, Initial residual = 0.00343849, Final residual = 3.28752e-05, No Iterations 4
GAMG:  Solving for p, Initial residual = 0.575865, Final residual = 0.0038303, No Iterations 2
GAMG:  Solving for p, Initial residual = 0.113338, Final residual = 0.00106291, No Iterations 2
GAMG:  Solving for p, Initial residual = 0.0409828, Final residual = 0.000342728, No Iterations 3
time step continuity errors : sum local = 1.76829, global = -0.00128654, cumulative = -0.294339
pressureControl: p max 3.15255e+08
pressureControl: p min -92686.8
ExecutionTime = 32.38 s  ClockTime = 33 s

Time = 47

Courant Number mean: 39864.9 max: 4.02315e+07
smoothSolver:  Solving for Ux, Initial residual = 0.0221045, Final residual = 0.000195393, No Iterations 3
smoothSolver:  Solving for Uy, Initial residual = 0.00320499, Final residual = 8.46951e-06, No Iterations 4
smoothSolver:  Solving for Uz, Initial residual = 0.0225637, Final residual = 0.000196119, No Iterations 3
smoothSolver:  Solving for h, Initial residual = 0.00339127, Final residual = 3.24323e-05, No Iterations 4
GAMG:  Solving for p, Initial residual = 0.557893, Final residual = 0.00358554, No Iterations 2
GAMG:  Solving for p, Initial residual = 0.111603, Final residual = 0.000973954, No Iterations 2
GAMG:  Solving for p, Initial residual = 0.0414966, Final residual = 0.000316231, No Iterations 3
time step continuity errors : sum local = 1.62351, global = -0.00200426, cumulative = -0.296343
pressureControl: p max 2.99765e+08
pressureControl: p min -99770.1
ExecutionTime = 33.09 s  ClockTime = 33 s

Time = 48

Courant Number mean: 39868.3 max: 3.98335e+07
smoothSolver:  Solving for Ux, Initial residual = 0.0215912, Final residual = 0.000191219, No Iterations 3
smoothSolver:  Solving for Uy, Initial residual = 0.00317803, Final residual = 8.56614e-06, No Iterations 4
smoothSolver:  Solving for Uz, Initial residual = 0.0221071, Final residual = 0.000195005, No Iterations 3
smoothSolver:  Solving for h, Initial residual = 0.0033474, Final residual = 3.20095e-05, No Iterations 4
GAMG:  Solving for p, Initial residual = 0.540899, Final residual = 0.00328386, No Iterations 2
GAMG:  Solving for p, Initial residual = 0.110956, Final residual = 0.000903456, No Iterations 2
GAMG:  Solving for p, Initial residual = 0.0446473, Final residual = 0.000296495, No Iterations 3
time step continuity errors : sum local = 1.51956, global = -0.00120271, cumulative = -0.297546
pressureControl: p max 2.83948e+08
pressureControl: p min -105496
ExecutionTime = 33.76 s  ClockTime = 34 s

Time = 49

Courant Number mean: 39872.1 max: 3.94411e+07
smoothSolver:  Solving for Ux, Initial residual = 0.0211754, Final residual = 0.000189021, No Iterations 3
smoothSolver:  Solving for Uy, Initial residual = 0.00315438, Final residual = 8.74404e-06, No Iterations 4
smoothSolver:  Solving for Uz, Initial residual = 0.0217077, Final residual = 0.00019471, No Iterations 3
smoothSolver:  Solving for h, Initial residual = 0.0033077, Final residual = 3.15908e-05, No Iterations 4
GAMG:  Solving for p, Initial residual = 0.527162, Final residual = 0.00297538, No Iterations 2
GAMG:  Solving for p, Initial residual = 0.11536, Final residual = 0.00088198, No Iterations 2
GAMG:  Solving for p, Initial residual = 0.056661, Final residual = 0.000280774, No Iterations 3
time step continuity errors : sum local = 1.44865, global = -0.00425679, cumulative = -0.301802
pressureControl: p max 2.68664e+08
pressureControl: p min -1.46892e+06
ExecutionTime = 34.42 s  ClockTime = 35 s

Time = 50

Courant Number mean: 39885.3 max: 3.9053e+07
smoothSolver:  Solving for Ux, Initial residual = 0.0208418, Final residual = 0.000188592, No Iterations 3
smoothSolver:  Solving for Uy, Initial residual = 0.00312822, Final residual = 8.90956e-06, No Iterations 4
smoothSolver:  Solving for Uz, Initial residual = 0.0213394, Final residual = 0.000194199, No Iterations 3
smoothSolver:  Solving for h, Initial residual = 0.00327696, Final residual = 3.11907e-05, No Iterations 4
GAMG:  Solving for p, Initial residual = 0.522995, Final residual = 0.0027631, No Iterations 2
GAMG:  Solving for p, Initial residual = 0.139299, Final residual = 0.000876226, No Iterations 2
GAMG:  Solving for p, Initial residual = 0.0996981, Final residual = 0.00063014, No Iterations 2
time step continuity errors : sum local = 3.41153, global = -0.0236836, cumulative = -0.325486
pressureControl: p max 2.49285e+08
pressureControl: p min -1.7288e+06
ExecutionTime = 35.09 s  ClockTime = 35 s

Time = 51

Courant Number mean: 39915 max: 3.86914e+07
smoothSolver:  Solving for Ux, Initial residual = 0.0204564, Final residual = 0.000189953, No Iterations 3
smoothSolver:  Solving for Uy, Initial residual = 0.00307729, Final residual = 9.01714e-06, No Iterations 4
smoothSolver:  Solving for Uz, Initial residual = 0.0209363, Final residual = 0.000192809, No Iterations 3
smoothSolver:  Solving for h, Initial residual = 0.00326268, Final residual = 3.08171e-05, No Iterations 4
GAMG:  Solving for p, Initial residual = 0.56106, Final residual = 0.00277274, No Iterations 2
GAMG:  Solving for p, Initial residual = 0.253816, Final residual = 0.000919341, No Iterations 2
GAMG:  Solving for p, Initial residual = 0.285517, Final residual = 0.0011142, No Iterations 2
time step continuity errors : sum local = 7.75745, global = -0.0343239, cumulative = -0.35981
pressureControl: p max 2.33126e+08
pressureControl: p min -96735.5
ExecutionTime = 35.73 s  ClockTime = 36 s

Time = 52

Courant Number mean: 40115.8 max: 3.83861e+07
smoothSolver:  Solving for Ux, Initial residual = 0.0203997, Final residual = 0.000188767, No Iterations 3
smoothSolver:  Solving for Uy, Initial residual = 0.00301317, Final residual = 8.5003e-06, No Iterations 4
smoothSolver:  Solving for Uz, Initial residual = 0.0207935, Final residual = 0.000188764, No Iterations 3
smoothSolver:  Solving for h, Initial residual = 0.00335572, Final residual = 3.05308e-05, No Iterations 4
GAMG:  Solving for p, Initial residual = 0.762131, Final residual = 0.00285959, No Iterations 2
GAMG:  Solving for p, Initial residual = 0.623819, Final residual = 0.00162791, No Iterations 2
GAMG:  Solving for p, Initial residual = 0.719922, Final residual = 0.00210676, No Iterations 2
time step continuity errors : sum local = 43.0931, global = -0.0957117, cumulative = -0.455522
pressureControl: p max 2.07837e+08
pressureControl: p min -109602
ExecutionTime = 36.38 s  ClockTime = 37 s

Time = 53

Courant Number mean: 41569.3 max: 3.80202e+07
smoothSolver:  Solving for Ux, Initial residual = 0.0198656, Final residual = 0.000194085, No Iterations 3
smoothSolver:  Solving for Uy, Initial residual = 0.00297239, Final residual = 8.72171e-06, No Iterations 4
smoothSolver:  Solving for Uz, Initial residual = 0.0214428, Final residual = 0.000204985, No Iterations 3
smoothSolver:  Solving for h, Initial residual = 0.00390908, Final residual = 3.32212e-05, No Iterations 4
GAMG:  Solving for p, Initial residual = 0.952707, Final residual = 0.00221308, No Iterations 2
GAMG:  Solving for p, Initial residual = 0.864117, Final residual = 0.00592489, No Iterations 1
GAMG:  Solving for p, Initial residual = 0.907071, Final residual = 0.00573709, No Iterations 1
time step continuity errors : sum local = 749.379, global = -0.113883, cumulative = -0.569405
pressureControl: p max 1.6446e+08
pressureControl: p min -6.90966e+06
ExecutionTime = 37.02 s  ClockTime = 37 s

Time = 54

Courant Number mean: 50348.5 max: 1.29972e+08
smoothSolver:  Solving for Ux, Initial residual = 0.0184862, Final residual = 5.23775e-05, No Iterations 4
smoothSolver:  Solving for Uy, Initial residual = 0.00296383, Final residual = 1.01096e-05, No Iterations 4
smoothSolver:  Solving for Uz, Initial residual = 0.0159544, Final residual = 4.40629e-05, No Iterations 4
smoothSolver:  Solving for h, Initial residual = 0.0102586, Final residual = 3.49351e-05, No Iterations 4
GAMG:  Solving for p, Initial residual = 0.986766, Final residual = 0.001511, No Iterations 2
GAMG:  Solving for p, Initial residual = 0.886553, Final residual = 0.004652, No Iterations 1
GAMG:  Solving for p, Initial residual = 0.924145, Final residual = 0.00453916, No Iterations 1
time step continuity errors : sum local = 3327.51, global = -0.1445, cumulative = -0.713905
pressureControl: p max 1.56724e+08
pressureControl: p min -2.33294e+06
ExecutionTime = 37.65 s  ClockTime = 38 s

Time = 55

Courant Number mean: 97077.8 max: 8.03803e+08
smoothSolver:  Solving for Ux, Initial residual = 0.00569379, Final residual = 1.93911e-05, No Iterations 4
smoothSolver:  Solving for Uy, Initial residual = 0.00306684, Final residual = 1.26453e-05, No Iterations 4
smoothSolver:  Solving for Uz, Initial residual = 0.00544896, Final residual = 1.76776e-05, No Iterations 4
smoothSolver:  Solving for h, Initial residual = 0.0369784, Final residual = 0.000156477, No Iterations 4
GAMG:  Solving for p, Initial residual = 0.974923, Final residual = 0.00119564, No Iterations 2
GAMG:  Solving for p, Initial residual = 0.887629, Final residual = 0.000669708, No Iterations 2
GAMG:  Solving for p, Initial residual = 0.90519, Final residual = 0.000725714, No Iterations 2
time step continuity errors : sum local = 1207.35, global = -0.153583, cumulative = -0.867488
pressureControl: p max 1.72732e+08
pressureControl: p min -4.15193e+07
ExecutionTime = 38.31 s  ClockTime = 39 s

Time = 56

Courant Number mean: 277934 max: 4.37719e+09
smoothSolver:  Solving for Ux, Initial residual = 0.00384896, Final residual = 1.24988e-05, No Iterations 4
smoothSolver:  Solving for Uy, Initial residual = 0.00318224, Final residual = 1.29972e-05, No Iterations 4
smoothSolver:  Solving for Uz, Initial residual = 0.00313668, Final residual = 9.89308e-06, No Iterations 4
smoothSolver:  Solving for h, Initial residual = 0.0486527, Final residual = 7.24058e-05, No Iterations 4
GAMG:  Solving for p, Initial residual = 0.943589, Final residual = 0.00437158, No Iterations 2
GAMG:  Solving for p, Initial residual = 0.717674, Final residual = 0.00180919, No Iterations 2
GAMG:  Solving for p, Initial residual = 0.585386, Final residual = 0.00167819, No Iterations 2
time step continuity errors : sum local = 4742.22, global = -0.175207, cumulative = -1.0427
pressureControl: p max 1.5792e+08
pressureControl: p min -6.87817e+06
ExecutionTime = 38.95 s  ClockTime = 39 s

Time = 57

Courant Number mean: 730720 max: 1.01575e+10
smoothSolver:  Solving for Ux, Initial residual = 0.0192061, Final residual = 7.55937e-05, No Iterations 4
smoothSolver:  Solving for Uy, Initial residual = 0.00316576, Final residual = 1.27049e-05, No Iterations 4
smoothSolver:  Solving for Uz, Initial residual = 0.00812399, Final residual = 2.66228e-05, No Iterations 4
smoothSolver:  Solving for h, Initial residual = 0.0319441, Final residual = 9.65481e-05, No Iterations 4
GAMG:  Solving for p, Initial residual = 0.789341, Final residual = 0.00422806, No Iterations 2
GAMG:  Solving for p, Initial residual = 0.707708, Final residual = 0.00153344, No Iterations 2
GAMG:  Solving for p, Initial residual = 0.697165, Final residual = 0.00127066, No Iterations 2
time step continuity errors : sum local = 3180.18, global = -0.181177, cumulative = -1.22387
pressureControl: p max 1.50393e+08
pressureControl: p min -1.43953e+07
ExecutionTime = 39.61 s  ClockTime = 40 s

Time = 58

Courant Number mean: 554837 max: 3.86088e+09
smoothSolver:  Solving for Ux, Initial residual = 0.00402741, Final residual = 1.32349e-05, No Iterations 4
smoothSolver:  Solving for Uy, Initial residual = 0.00282796, Final residual = 1.07295e-05, No Iterations 4
smoothSolver:  Solving for Uz, Initial residual = 0.0229895, Final residual = 7.28289e-05, No Iterations 4
smoothSolver:  Solving for h, Initial residual = 0.0363989, Final residual = 9.60477e-05, No Iterations 4
GAMG:  Solving for p, Initial residual = 0.772549, Final residual = 0.00420339, No Iterations 2
GAMG:  Solving for p, Initial residual = 0.800116, Final residual = 0.00113811, No Iterations 2
GAMG:  Solving for p, Initial residual = 0.66981, Final residual = 0.00143577, No Iterations 2
time step continuity errors : sum local = 4896.97, global = -0.184853, cumulative = -1.40872
pressureControl: p max 1.39188e+08
pressureControl: p min -8.03843e+06
ExecutionTime = 40.27 s  ClockTime = 40 s

Time = 59

Courant Number mean: 683730 max: 3.15638e+09
smoothSolver:  Solving for Ux, Initial residual = 0.00873011, Final residual = 3.00606e-05, No Iterations 4
smoothSolver:  Solving for Uy, Initial residual = 0.00262423, Final residual = 1.04058e-05, No Iterations 4
smoothSolver:  Solving for Uz, Initial residual = 0.00347624, Final residual = 1.19759e-05, No Iterations 4
smoothSolver:  Solving for h, Initial residual = 0.024957, Final residual = 0.000204374, No Iterations 4
GAMG:  Solving for p, Initial residual = 0.857287, Final residual = 0.00686585, No Iterations 2
GAMG:  Solving for p, Initial residual = 0.788055, Final residual = 0.0023079, No Iterations 2
GAMG:  Solving for p, Initial residual = 0.710081, Final residual = 0.00181004, No Iterations 2
time step continuity errors : sum local = 6425.6, global = -0.18273, cumulative = -1.59145
pressureControl: p max 1.28821e+08
pressureControl: p min -2.09835e+07
ExecutionTime = 40.92 s  ClockTime = 41 s

Time = 60

Courant Number mean: 672208 max: 8.25719e+09
smoothSolver:  Solving for Ux, Initial residual = 0.00494858, Final residual = 1.97607e-05, No Iterations 4
smoothSolver:  Solving for Uy, Initial residual = 0.00264886, Final residual = 1.06944e-05, No Iterations 4
smoothSolver:  Solving for Uz, Initial residual = 0.00517052, Final residual = 1.91504e-05, No Iterations 4
smoothSolver:  Solving for h, Initial residual = 0.0266509, Final residual = 0.000210623, No Iterations 4
GAMG:  Solving for p, Initial residual = 0.824802, Final residual = 0.0022334, No Iterations 3
GAMG:  Solving for p, Initial residual = 0.808275, Final residual = 0.00196362, No Iterations 2
GAMG:  Solving for p, Initial residual = 0.718697, Final residual = 0.00233295, No Iterations 2
time step continuity errors : sum local = 9877.75, global = -0.188667, cumulative = -1.78012
pressureControl: p max 1.27068e+08
pressureControl: p min -1.99366e+07
ExecutionTime = 41.62 s  ClockTime = 42 s

Time = 61

Courant Number mean: 849116 max: 1.49304e+10
smoothSolver:  Solving for Ux, Initial residual = 0.00201943, Final residual = 6.83637e-06, No Iterations 4
smoothSolver:  Solving for Uy, Initial residual = 0.0025373, Final residual = 9.82706e-06, No Iterations 4
smoothSolver:  Solving for Uz, Initial residual = 0.00994342, Final residual = 3.5532e-05, No Iterations 4
smoothSolver:  Solving for h, Initial residual = 0.0297422, Final residual = 0.000175611, No Iterations 4
GAMG:  Solving for p, Initial residual = 0.875735, Final residual = 0.00686526, No Iterations 2
GAMG:  Solving for p, Initial residual = 0.782446, Final residual = 0.00206213, No Iterations 2
GAMG:  Solving for p, Initial residual = 0.791166, Final residual = 0.00264239, No Iterations 2
time step continuity errors : sum local = 11625.7, global = -0.188413, cumulative = -1.96853
pressureControl: p max 1.02255e+08
pressureControl: p min -1.97093e+07
ExecutionTime = 42.27 s  ClockTime = 42 s

Time = 62

Courant Number mean: 805474 max: 1.01214e+10
smoothSolver:  Solving for Ux, Initial residual = 0.00414967, Final residual = 1.47258e-05, No Iterations 4
smoothSolver:  Solving for Uy, Initial residual = 0.00212409, Final residual = 8.31725e-06, No Iterations 4
smoothSolver:  Solving for Uz, Initial residual = 0.00374211, Final residual = 1.27073e-05, No Iterations 4
smoothSolver:  Solving for h, Initial residual = 0.0255949, Final residual = 0.000141848, No Iterations 4
GAMG:  Solving for p, Initial residual = 0.865234, Final residual = 0.00726955, No Iterations 2
GAMG:  Solving for p, Initial residual = 0.812247, Final residual = 0.00198235, No Iterations 2
GAMG:  Solving for p, Initial residual = 0.786447, Final residual = 0.00244222, No Iterations 2
time step continuity errors : sum local = 12660.6, global = -0.19988, cumulative = -2.16841
pressureControl: p max 9.08808e+07
pressureControl: p min -2.1951e+07
ExecutionTime = 42.94 s  ClockTime = 43 s

Time = 63

Courant Number mean: 1.03285e+06 max: 1.27113e+10
smoothSolver:  Solving for Ux, Initial residual = 0.00204106, Final residual = 8.0471e-06, No Iterations 4
smoothSolver:  Solving for Uy, Initial residual = 0.0020987, Final residual = 8.61277e-06, No Iterations 4
smoothSolver:  Solving for Uz, Initial residual = 0.00688716, Final residual = 2.60032e-05, No Iterations 4
smoothSolver:  Solving for h, Initial residual = 0.0267545, Final residual = 0.000158943, No Iterations 4
GAMG:  Solving for p, Initial residual = 0.827145, Final residual = 0.00271889, No Iterations 3
GAMG:  Solving for p, Initial residual = 0.810646, Final residual = 0.00236106, No Iterations 2
GAMG:  Solving for p, Initial residual = 0.769432, Final residual = 0.00310222, No Iterations 2
time step continuity errors : sum local = 17417.7, global = -0.227955, cumulative = -2.39637
pressureControl: p max 8.69661e+07
pressureControl: p min -2.02466e+07
ExecutionTime = 43.61 s  ClockTime = 44 s

Time = 64

Courant Number mean: 1.09698e+06 max: 1.24275e+10
smoothSolver:  Solving for Ux, Initial residual = 0.0024558, Final residual = 8.7277e-06, No Iterations 4
smoothSolver:  Solving for Uy, Initial residual = 0.00196941, Final residual = 7.56532e-06, No Iterations 4
smoothSolver:  Solving for Uz, Initial residual = 0.00624404, Final residual = 2.21736e-05, No Iterations 4
smoothSolver:  Solving for h, Initial residual = 0.0262875, Final residual = 0.000171639, No Iterations 4
GAMG:  Solving for p, Initial residual = 0.865035, Final residual = 0.00254197, No Iterations 3
GAMG:  Solving for p, Initial residual = 0.820539, Final residual = 0.00251959, No Iterations 2
GAMG:  Solving for p, Initial residual = 0.781783, Final residual = 0.00307545, No Iterations 2
time step continuity errors : sum local = 18301.2, global = -0.253556, cumulative = -2.64993
pressureControl: p max 7.4887e+07
pressureControl: p min -1.70026e+07
ExecutionTime = 44.28 s  ClockTime = 44 s

Time = 65

Courant Number mean: 1.13486e+06 max: 1.22254e+10
smoothSolver:  Solving for Ux, Initial residual = 0.00215316, Final residual = 8.19597e-06, No Iterations 4
smoothSolver:  Solving for Uy, Initial residual = 0.0022016, Final residual = 9.12836e-06, No Iterations 4
smoothSolver:  Solving for Uz, Initial residual = 0.019605, Final residual = 7.12167e-05, No Iterations 4
smoothSolver:  Solving for h, Initial residual = 0.0230885, Final residual = 0.000123993, No Iterations 4
GAMG:  Solving for p, Initial residual = 0.834218, Final residual = 0.00260072, No Iterations 3
GAMG:  Solving for p, Initial residual = 0.845175, Final residual = 0.00255515, No Iterations 2
GAMG:  Solving for p, Initial residual = 0.806802, Final residual = 0.00303182, No Iterations 2
time step continuity errors : sum local = 17884.3, global = -0.277885, cumulative = -2.92781
pressureControl: p max 6.26227e+07
pressureControl: p min -2.59042e+07
ExecutionTime = 44.95 s  ClockTime = 45 s

Time = 66

Courant Number mean: 1.1282e+06 max: 8.98904e+09
smoothSolver:  Solving for Ux, Initial residual = 0.0024406, Final residual = 9.1608e-06, No Iterations 4
smoothSolver:  Solving for Uy, Initial residual = 0.002311, Final residual = 9.87296e-06, No Iterations 4
smoothSolver:  Solving for Uz, Initial residual = 0.00511781, Final residual = 1.96647e-05, No Iterations 4
smoothSolver:  Solving for h, Initial residual = 0.0241341, Final residual = 0.000157319, No Iterations 4
GAMG:  Solving for p, Initial residual = 0.864871, Final residual = 0.00317948, No Iterations 3
GAMG:  Solving for p, Initial residual = 0.826555, Final residual = 0.00262441, No Iterations 2
GAMG:  Solving for p, Initial residual = 0.777106, Final residual = 0.00322185, No Iterations 2
time step continuity errors : sum local = 22392, global = -0.296939, cumulative = -3.22475
pressureControl: p max 5.49011e+07
pressureControl: p min -2.0126e+07
ExecutionTime = 45.61 s  ClockTime = 46 s

Time = 67

Courant Number mean: 1.24273e+06 max: 5.58296e+09
smoothSolver:  Solving for Ux, Initial residual = 0.00160695, Final residual = 5.98911e-06, No Iterations 4
smoothSolver:  Solving for Uy, Initial residual = 0.00228046, Final residual = 1.00737e-05, No Iterations 4
smoothSolver:  Solving for Uz, Initial residual = 0.0190201, Final residual = 7.35239e-05, No Iterations 4
smoothSolver:  Solving for h, Initial residual = 0.0231674, Final residual = 0.000133858, No Iterations 4
GAMG:  Solving for p, Initial residual = 0.847953, Final residual = 0.0025363, No Iterations 3
GAMG:  Solving for p, Initial residual = 0.855565, Final residual = 0.00272811, No Iterations 2
GAMG:  Solving for p, Initial residual = 0.807724, Final residual = 0.00308778, No Iterations 2
time step continuity errors : sum local = 23171.5, global = -0.306556, cumulative = -3.53131
pressureControl: p max 5.16955e+07
pressureControl: p min -3.30486e+07
ExecutionTime = 46.27 s  ClockTime = 46 s

Time = 68

Courant Number mean: 1.48352e+06 max: 1.57845e+10
smoothSolver:  Solving for Ux, Initial residual = 0.00236669, Final residual = 9.95221e-06, No Iterations 4
smoothSolver:  Solving for Uy, Initial residual = 0.00226773, Final residual = 1.02628e-05, No Iterations 4
smoothSolver:  Solving for Uz, Initial residual = 0.00372542, Final residual = 1.5691e-05, No Iterations 4
smoothSolver:  Solving for h, Initial residual = 0.0233608, Final residual = 0.000179608, No Iterations 4
GAMG:  Solving for p, Initial residual = 0.872853, Final residual = 0.00860072, No Iterations 2
GAMG:  Solving for p, Initial residual = 0.824727, Final residual = 0.00277538, No Iterations 2
GAMG:  Solving for p, Initial residual = 0.79016, Final residual = 0.00338955, No Iterations 2
time step continuity errors : sum local = 26835.6, global = -0.315144, cumulative = -3.84645
pressureControl: p max 4.63534e+07
pressureControl: p min -1.92239e+07
ExecutionTime = 46.95 s  ClockTime = 47 s

Time = 69

Courant Number mean: 1.43777e+06 max: 1.30967e+10
smoothSolver:  Solving for Ux, Initial residual = 0.0030849, Final residual = 1.13687e-05, No Iterations 4
smoothSolver:  Solving for Uy, Initial residual = 0.0023259, Final residual = 1.04451e-05, No Iterations 4
smoothSolver:  Solving for Uz, Initial residual = 0.00791712, Final residual = 3.11024e-05, No Iterations 4
smoothSolver:  Solving for h, Initial residual = 0.0198025, Final residual = 0.000140551, No Iterations 4
GAMG:  Solving for p, Initial residual = 0.851284, Final residual = 0.00826491, No Iterations 2
GAMG:  Solving for p, Initial residual = 0.857312, Final residual = 0.00285061, No Iterations 2
GAMG:  Solving for p, Initial residual = 0.845541, Final residual = 0.00322716, No Iterations 2
time step continuity errors : sum local = 26992.2, global = -0.312711, cumulative = -4.15916
pressureControl: p max 4.43808e+07
pressureControl: p min -2.38899e+07
ExecutionTime = 47.72 s  ClockTime = 48 s

Time = 70

Courant Number mean: 1.58127e+06 max: 1.35207e+10
smoothSolver:  Solving for Ux, Initial residual = 0.00196983, Final residual = 7.72259e-06, No Iterations 4
smoothSolver:  Solving for Uy, Initial residual = 0.00260931, Final residual = 1.20789e-05, No Iterations 4
smoothSolver:  Solving for Uz, Initial residual = 0.00939095, Final residual = 3.85873e-05, No Iterations 4
smoothSolver:  Solving for h, Initial residual = 0.0222055, Final residual = 0.000149578, No Iterations 4
GAMG:  Solving for p, Initial residual = 0.86775, Final residual = 0.00259982, No Iterations 3
GAMG:  Solving for p, Initial residual = 0.83934, Final residual = 0.00296023, No Iterations 2
GAMG:  Solving for p, Initial residual = 0.800748, Final residual = 0.00345527, No Iterations 2
time step continuity errors : sum local = 33697, global = -0.290508, cumulative = -4.44967
pressureControl: p max 4.20225e+07
pressureControl: p min -2.45397e+07
ExecutionTime = 48.45 s  ClockTime = 49 s

Time = 71

Courant Number mean: 1.74916e+06 max: 5.36274e+09
smoothSolver:  Solving for Ux, Initial residual = 0.00210844, Final residual = 8.06728e-06, No Iterations 4
smoothSolver:  Solving for Uy, Initial residual = 0.00282834, Final residual = 1.31553e-05, No Iterations 4
smoothSolver:  Solving for Uz, Initial residual = 0.0142742, Final residual = 5.69467e-05, No Iterations 4
smoothSolver:  Solving for h, Initial residual = 0.0207576, Final residual = 0.000123026, No Iterations 4
GAMG:  Solving for p, Initial residual = 0.863599, Final residual = 0.00245067, No Iterations 3
GAMG:  Solving for p, Initial residual = 0.850784, Final residual = 0.00307864, No Iterations 2
GAMG:  Solving for p, Initial residual = 0.7951, Final residual = 0.00350784, No Iterations 2
time step continuity errors : sum local = 35841.4, global = -0.250157, cumulative = -4.69983
pressureControl: p max 3.79375e+07
pressureControl: p min -2.86233e+07
ExecutionTime = 49.25 s  ClockTime = 49 s

Time = 72

Courant Number mean: 1.83633e+06 max: 1.33136e+10
smoothSolver:  Solving for Ux, Initial residual = 0.00323202, Final residual = 1.25233e-05, No Iterations 4
smoothSolver:  Solving for Uy, Initial residual = 0.00253331, Final residual = 1.21071e-05, No Iterations 4
smoothSolver:  Solving for Uz, Initial residual = 0.0126665, Final residual = 5.16673e-05, No Iterations 4
smoothSolver:  Solving for h, Initial residual = 0.0203599, Final residual = 0.000112255, No Iterations 4
GAMG:  Solving for p, Initial residual = 0.872189, Final residual = 0.00782146, No Iterations 2
GAMG:  Solving for p, Initial residual = 0.849223, Final residual = 0.0028939, No Iterations 2
GAMG:  Solving for p, Initial residual = 0.814686, Final residual = 0.00350724, No Iterations 2
time step continuity errors : sum local = 34963.6, global = -0.211666, cumulative = -4.91149
pressureControl: p max 3.92005e+07
pressureControl: p min -3.69803e+07
ExecutionTime = 49.9 s  ClockTime = 50 s

Time = 73

Courant Number mean: 1.80732e+06 max: 7.77844e+09
smoothSolver:  Solving for Ux, Initial residual = 0.00202346, Final residual = 7.51358e-06, No Iterations 4
smoothSolver:  Solving for Uy, Initial residual = 0.00247422, Final residual = 1.20173e-05, No Iterations 4
smoothSolver:  Solving for Uz, Initial residual = 0.00769548, Final residual = 3.00285e-05, No Iterations 4
smoothSolver:  Solving for h, Initial residual = 0.0201949, Final residual = 0.000146541, No Iterations 4
GAMG:  Solving for p, Initial residual = 0.87322, Final residual = 0.00721067, No Iterations 2
GAMG:  Solving for p, Initial residual = 0.850521, Final residual = 0.00261844, No Iterations 2
GAMG:  Solving for p, Initial residual = 0.821332, Final residual = 0.00310736, No Iterations 2
time step continuity errors : sum local = 32973.8, global = -0.218412, cumulative = -5.1299
pressureControl: p max 3.5249e+07
pressureControl: p min -3.02582e+07
ExecutionTime = 50.55 s  ClockTime = 51 s

Time = 74

Courant Number mean: 1.9264e+06 max: 1.71518e+10
smoothSolver:  Solving for Ux, Initial residual = 0.00278333, Final residual = 1.06626e-05, No Iterations 4
smoothSolver:  Solving for Uy, Initial residual = 0.00238502, Final residual = 1.16003e-05, No Iterations 4
smoothSolver:  Solving for Uz, Initial residual = 0.0201045, Final residual = 8.26789e-05, No Iterations 4
smoothSolver:  Solving for h, Initial residual = 0.0190762, Final residual = 0.000115649, No Iterations 4
GAMG:  Solving for p, Initial residual = 0.886529, Final residual = 0.00772704, No Iterations 2
GAMG:  Solving for p, Initial residual = 0.844324, Final residual = 0.00270031, No Iterations 2
GAMG:  Solving for p, Initial residual = 0.810109, Final residual = 0.00331953, No Iterations 2
time step continuity errors : sum local = 35889, global = -0.29242, cumulative = -5.42232
pressureControl: p max 4.01765e+07
pressureControl: p min -2.28341e+07
ExecutionTime = 51.26 s  ClockTime = 51 s

Time = 75

Courant Number mean: 1.97527e+06 max: 9.6681e+09
smoothSolver:  Solving for Ux, Initial residual = 0.00226406, Final residual = 8.48851e-06, No Iterations 4
smoothSolver:  Solving for Uy, Initial residual = 0.00230817, Final residual = 1.14446e-05, No Iterations 4
smoothSolver:  Solving for Uz, Initial residual = 0.00475319, Final residual = 1.86049e-05, No Iterations 4
smoothSolver:  Solving for h, Initial residual = 0.0186069, Final residual = 0.000132623, No Iterations 4
GAMG:  Solving for p, Initial residual = 0.8691, Final residual = 0.00714699, No Iterations 2
GAMG:  Solving for p, Initial residual = 0.855565, Final residual = 0.00263626, No Iterations 2
GAMG:  Solving for p, Initial residual = 0.821045, Final residual = 0.00311526, No Iterations 2
time step continuity errors : sum local = 34341.6, global = -0.389484, cumulative = -5.81181
pressureControl: p max 5.98892e+07
pressureControl: p min -2.62648e+07
ExecutionTime = 51.94 s  ClockTime = 52 s

Time = 76

Courant Number mean: 2.04106e+06 max: 1.93498e+10
smoothSolver:  Solving for Ux, Initial residual = 0.00334012, Final residual = 1.24621e-05, No Iterations 4
smoothSolver:  Solving for Uy, Initial residual = 0.0023594, Final residual = 1.17944e-05, No Iterations 4
smoothSolver:  Solving for Uz, Initial residual = 0.0170106, Final residual = 6.92451e-05, No Iterations 4
smoothSolver:  Solving for h, Initial residual = 0.0187315, Final residual = 0.000116239, No Iterations 4
GAMG:  Solving for p, Initial residual = 0.875093, Final residual = 0.00707207, No Iterations 2
GAMG:  Solving for p, Initial residual = 0.848698, Final residual = 0.00261136, No Iterations 2
GAMG:  Solving for p, Initial residual = 0.826165, Final residual = 0.00315056, No Iterations 2
time step continuity errors : sum local = 35154.9, global = -0.455714, cumulative = -6.26752
pressureControl: p max 6.85326e+07
pressureControl: p min -2.22147e+07
ExecutionTime = 52.62 s  ClockTime = 53 s

Time = 77

Courant Number mean: 2.07136e+06 max: 1.48491e+10
smoothSolver:  Solving for Ux, Initial residual = 0.00202689, Final residual = 7.61577e-06, No Iterations 4
smoothSolver:  Solving for Uy, Initial residual = 0.00248679, Final residual = 1.20441e-05, No Iterations 4
smoothSolver:  Solving for Uz, Initial residual = 0.0040737, Final residual = 1.59953e-05, No Iterations 4
smoothSolver:  Solving for h, Initial residual = 0.0177902, Final residual = 0.000118435, No Iterations 4
GAMG:  Solving for p, Initial residual = 0.859517, Final residual = 0.00685229, No Iterations 2
GAMG:  Solving for p, Initial residual = 0.851023, Final residual = 0.00266828, No Iterations 2
GAMG:  Solving for p, Initial residual = 0.819294, Final residual = 0.0031414, No Iterations 2
time step continuity errors : sum local = 34811.1, global = -0.355181, cumulative = -6.6227
pressureControl: p max 6.05575e+07
pressureControl: p min -2.42522e+07
ExecutionTime = 53.38 s  ClockTime = 54 s

Time = 78

Courant Number mean: 2.13494e+06 max: 2.44745e+10
smoothSolver:  Solving for Ux, Initial residual = 0.00359051, Final residual = 1.35025e-05, No Iterations 4
smoothSolver:  Solving for Uy, Initial residual = 0.00244852, Final residual = 1.23187e-05, No Iterations 4
smoothSolver:  Solving for Uz, Initial residual = 0.00700323, Final residual = 2.80294e-05, No Iterations 4
smoothSolver:  Solving for h, Initial residual = 0.0175095, Final residual = 0.000108082, No Iterations 4
GAMG:  Solving for p, Initial residual = 0.86889, Final residual = 0.00707249, No Iterations 2
GAMG:  Solving for p, Initial residual = 0.849807, Final residual = 0.00251961, No Iterations 2
GAMG:  Solving for p, Initial residual = 0.817352, Final residual = 0.0030737, No Iterations 2
time step continuity errors : sum local = 35295.8, global = -0.264039, cumulative = -6.88674
pressureControl: p max 5.55649e+07
pressureControl: p min -2.22329e+07
ExecutionTime = 54.04 s  ClockTime = 54 s

Time = 79

Courant Number mean: 2.18296e+06 max: 1.9069e+10
smoothSolver:  Solving for Ux, Initial residual = 0.00215061, Final residual = 8.38502e-06, No Iterations 4
smoothSolver:  Solving for Uy, Initial residual = 0.00247088, Final residual = 1.26811e-05, No Iterations 4
smoothSolver:  Solving for Uz, Initial residual = 0.0182149, Final residual = 7.03954e-05, No Iterations 4
smoothSolver:  Solving for h, Initial residual = 0.0182092, Final residual = 0.000126349, No Iterations 4
GAMG:  Solving for p, Initial residual = 0.863889, Final residual = 0.00677399, No Iterations 2
GAMG:  Solving for p, Initial residual = 0.855107, Final residual = 0.00270608, No Iterations 2
GAMG:  Solving for p, Initial residual = 0.829998, Final residual = 0.00311494, No Iterations 2
time step continuity errors : sum local = 37308.4, global = -0.187489, cumulative = -7.07423
pressureControl: p max 5.17212e+07
pressureControl: p min -2.28644e+07
ExecutionTime = 54.71 s  ClockTime = 55 s

Time = 80

Courant Number mean: 2.27529e+06 max: 2.73935e+10
smoothSolver:  Solving for Ux, Initial residual = 0.0038208, Final residual = 1.46707e-05, No Iterations 4
smoothSolver:  Solving for Uy, Initial residual = 0.00245302, Final residual = 1.28617e-05, No Iterations 4
smoothSolver:  Solving for Uz, Initial residual = 0.00921887, Final residual = 3.87863e-05, No Iterations 4
smoothSolver:  Solving for h, Initial residual = 0.0168587, Final residual = 9.15184e-05, No Iterations 4
GAMG:  Solving for p, Initial residual = 0.872325, Final residual = 0.00676295, No Iterations 2
GAMG:  Solving for p, Initial residual = 0.847552, Final residual = 0.00258706, No Iterations 2
GAMG:  Solving for p, Initial residual = 0.819813, Final residual = 0.0031387, No Iterations 2
time step continuity errors : sum local = 39451.1, global = -0.116732, cumulative = -7.19096
pressureControl: p max 4.9048e+07
pressureControl: p min -2.16758e+07
ExecutionTime = 55.41 s  ClockTime = 56 s

Time = 81

Courant Number mean: 2.40754e+06 max: 2.16293e+10
smoothSolver:  Solving for Ux, Initial residual = 0.00215432, Final residual = 8.57356e-06, No Iterations 4
smoothSolver:  Solving for Uy, Initial residual = 0.00259422, Final residual = 1.35175e-05, No Iterations 4
smoothSolver:  Solving for Uz, Initial residual = 0.00742914, Final residual = 2.83077e-05, No Iterations 4
smoothSolver:  Solving for h, Initial residual = 0.0186155, Final residual = 0.00013093, No Iterations 4
GAMG:  Solving for p, Initial residual = 0.862991, Final residual = 0.00674194, No Iterations 2
GAMG:  Solving for p, Initial residual = 0.848773, Final residual = 0.00270237, No Iterations 2
GAMG:  Solving for p, Initial residual = 0.82185, Final residual = 0.00319484, No Iterations 2
time step continuity errors : sum local = 40776.1, global = -0.0590757, cumulative = -7.25004
pressureControl: p max 4.73018e+07
pressureControl: p min -2.43076e+07
ExecutionTime = 56.16 s  ClockTime = 56 s

Time = 82

Courant Number mean: 2.45834e+06 max: 2.76178e+10
smoothSolver:  Solving for Ux, Initial residual = 0.00286937, Final residual = 1.11718e-05, No Iterations 4
smoothSolver:  Solving for Uy, Initial residual = 0.00265679, Final residual = 1.36832e-05, No Iterations 4
smoothSolver:  Solving for Uz, Initial residual = 0.00450176, Final residual = 1.82455e-05, No Iterations 4
smoothSolver:  Solving for h, Initial residual = 0.0171177, Final residual = 8.32519e-05, No Iterations 4
GAMG:  Solving for p, Initial residual = 0.859349, Final residual = 0.00674007, No Iterations 2
GAMG:  Solving for p, Initial residual = 0.84176, Final residual = 0.00259347, No Iterations 2
GAMG:  Solving for p, Initial residual = 0.816708, Final residual = 0.003171, No Iterations 2
time step continuity errors : sum local = 41655, global = -0.0479021, cumulative = -7.29794
pressureControl: p max 5.14875e+07
pressureControl: p min -2.15451e+07
ExecutionTime = 56.81 s  ClockTime = 57 s

Time = 83

Courant Number mean: 2.53077e+06 max: 2.07595e+10
smoothSolver:  Solving for Ux, Initial residual = 0.00242347, Final residual = 9.8384e-06, No Iterations 4
smoothSolver:  Solving for Uy, Initial residual = 0.00298162, Final residual = 1.57237e-05, No Iterations 4
